http://cactus.nci.nih.gov/chemical/structure/ethyl%20myristate/file?format=sdf&get3d=True
__Jmol-12_04061108133D 1   1.00000     0.00000     0
Jmol version 12.1.38_dev  2011-02-16 08:29 EXTRACT: ({0:49})
 50 49  0  0  0  0              1 V2000
  10.37840  -0.29190   0.00000 C   0  0  0  0  0  0
   9.10690   0.55920   0.00000 C   0  0  0  0  0  0
   7.88070  -0.35590   0.00000 C   0  0  0  0  0  0
   6.60930   0.49520   0.00000 C   0  0  0  0  0  0
   5.38300  -0.41980   0.00000 C   0  0  0  0  0  0
   4.11160   0.43130   0.00000 C   0  0  0  0  0  0
   2.88540  -0.48380   0.00000 C   0  0  0  0  0  0
   1.61390   0.36730   0.00000 C   0  0  0  0  0  0
   0.38770  -0.54770   0.00000 C   0  0  0  0  0  0
  -0.88370   0.30340   0.00000 C   0  0  0  0  0  0
  -2.10990  -0.61160   0.00000 C   0  0  0  0  0  0
  -3.38140   0.23940   0.00000 C   0  0  0  0  0  0
  -4.60760  -0.67560   0.00000 C   0  0  0  0  0  0
  -5.85990   0.16270   0.00000 C   0  0  0  0  0  0
  -5.77990   1.36830   0.00000 O   0  0  0  0  0  0
  -7.06430  -0.43000   0.00000 O   0  0  0  0  0  0
  -8.27090   0.37770   0.00000 C   0  0  0  0  0  0
  -9.49710  -0.53730   0.00000 C   0  0  0  0  0  0
  11.25190   0.36000   0.00000 H   0  0  0  0  0  0
  10.39450  -0.92100   0.89000 H   0  0  0  0  0  0
  10.39450  -0.92100  -0.89000 H   0  0  0  0  0  0
   9.09080   1.18830   0.89000 H   0  0  0  0  0  0
   9.09080   1.18830  -0.89000 H   0  0  0  0  0  0
   7.89680  -0.98500  -0.89000 H   0  0  0  0  0  0
   7.89680  -0.98500   0.89000 H   0  0  0  0  0  0
   6.59320   1.12430   0.89000 H   0  0  0  0  0  0
   6.59320   1.12430  -0.89000 H   0  0  0  0  0  0
   5.39910  -1.04890  -0.89000 H   0  0  0  0  0  0
   5.39910  -1.04890   0.89000 H   0  0  0  0  0  0
   4.09550   1.06040   0.89000 H   0  0  0  0  0  0
   4.09550   1.06040  -0.89000 H   0  0  0  0  0  0
   2.90150  -1.11290  -0.89000 H   0  0  0  0  0  0
   2.90150  -1.11290   0.89000 H   0  0  0  0  0  0
   1.59780   0.99640   0.89000 H   0  0  0  0  0  0
   1.59780   0.99640  -0.89000 H   0  0  0  0  0  0
   0.40380  -1.17680  -0.89000 H   0  0  0  0  0  0
   0.40380  -1.17680   0.89000 H   0  0  0  0  0  0
  -0.89980   0.93250   0.89000 H   0  0  0  0  0  0
  -0.89980   0.93250  -0.89000 H   0  0  0  0  0  0
  -2.09380  -1.24080  -0.89000 H   0  0  0  0  0  0
  -2.09380  -1.24080   0.89000 H   0  0  0  0  0  0
  -3.39750   0.86850   0.89000 H   0  0  0  0  0  0
  -3.39750   0.86850  -0.89000 H   0  0  0  0  0  0
  -4.59150  -1.30470  -0.89000 H   0  0  0  0  0  0
  -4.59150  -1.30470   0.89000 H   0  0  0  0  0  0
  -8.28700   1.00680   0.89000 H   0  0  0  0  0  0
  -8.28700   1.00680  -0.89000 H   0  0  0  0  0  0
 -10.40290   0.06900   0.00000 H   0  0  0  0  0  0
  -9.48100  -1.16640  -0.89000 H   0  0  0  0  0  0
  -9.48100  -1.16640   0.89000 H   0  0  0  0  0  0
  1  2  1  0  0  0
  2  3  1  0  0  0
  3  4  1  0  0  0
  4  5  1  0  0  0
  5  6  1  0  0  0
  6  7  1  0  0  0
  7  8  1  0  0  0
  8  9  1  0  0  0
  9 10  1  0  0  0
 10 11  1  0  0  0
 11 12  1  0  0  0
 12 13  1  0  0  0
 13 14  1  0  0  0
 14 15  2  0  0  0
 14 16  1  0  0  0
 16 17  1  0  0  0
 17 18  1  0  0  0
  1 19  1  0  0  0
  1 20  1  0  0  0
  1 21  1  0  0  0
  2 22  1  0  0  0
  2 23  1  0  0  0
  3 24  1  0  0  0
  3 25  1  0  0  0
  4 26  1  0  0  0
  4 27  1  0  0  0
  5 28  1  0  0  0
  5 29  1  0  0  0
  6 30  1  0  0  0
  6 31  1  0  0  0
  7 32  1  0  0  0
  7 33  1  0  0  0
  8 34  1  0  0  0
  8 35  1  0  0  0
  9 36  1  0  0  0
  9 37  1  0  0  0
 10 38  1  0  0  0
 10 39  1  0  0  0
 11 40  1  0  0  0
 11 41  1  0  0  0
 12 42  1  0  0  0
 12 43  1  0  0  0
 13 44  1  0  0  0
 13 45  1  0  0  0
 17 46  1  0  0  0
 17 47  1  0  0  0
 18 48  1  0  0  0
 18 49  1  0  0  0
 18 50  1  0  0  0
M  END
