http://cactus.nci.nih.gov/chemical/structure/methyl%20laurate/file?format=sdf&get3d=True
__Jmol-12_04061108103D 1   1.00000     0.00000     0
Jmol version 12.1.38_dev  2011-02-16 08:29 EXTRACT: ({0:40})
 41 40  0  0  0  0              1 V2000
   8.54600  -0.21290   0.00000 C   0  0  0  0  0  0
   7.25840   0.61350   0.00000 C   0  0  0  0  0  0
   6.05000  -0.32500   0.00000 C   0  0  0  0  0  0
   4.76240   0.50150   0.00000 C   0  0  0  0  0  0
   3.55400  -0.43700   0.00000 C   0  0  0  0  0  0
   2.26640   0.38940   0.00000 C   0  0  0  0  0  0
   1.05810  -0.54910   0.00000 C   0  0  0  0  0  0
  -0.22950   0.27730   0.00000 C   0  0  0  0  0  0
  -1.43790  -0.66120   0.00000 C   0  0  0  0  0  0
  -2.72550   0.16530   0.00000 C   0  0  0  0  0  0
  -3.93380  -0.77320   0.00000 C   0  0  0  0  0  0
  -5.20210   0.04080   0.00000 C   0  0  0  0  0  0
  -5.14530   1.24770   0.00000 O   0  0  0  0  0  0
  -6.39480  -0.57500   0.00000 O   0  0  0  0  0  0
  -7.61680   0.20930   0.00000 C   0  0  0  0  0  0
   9.40680   0.45570   0.00000 H   0  0  0  0  0  0
   8.57420  -0.84160   0.89000 H   0  0  0  0  0  0
   8.57420  -0.84160  -0.89000 H   0  0  0  0  0  0
   7.23010   1.24220   0.89000 H   0  0  0  0  0  0
   7.23010   1.24220  -0.89000 H   0  0  0  0  0  0
   6.07820  -0.95360  -0.89000 H   0  0  0  0  0  0
   6.07820  -0.95360   0.89000 H   0  0  0  0  0  0
   4.73420   1.13010   0.89000 H   0  0  0  0  0  0
   4.73420   1.13010  -0.89000 H   0  0  0  0  0  0
   3.58230  -1.06570  -0.89000 H   0  0  0  0  0  0
   3.58230  -1.06570   0.89000 H   0  0  0  0  0  0
   2.23820   1.01810   0.89000 H   0  0  0  0  0  0
   2.23820   1.01810  -0.89000 H   0  0  0  0  0  0
   1.08630  -1.17780  -0.89000 H   0  0  0  0  0  0
   1.08630  -1.17780   0.89000 H   0  0  0  0  0  0
  -0.25770   0.90600   0.89000 H   0  0  0  0  0  0
  -0.25770   0.90600  -0.89000 H   0  0  0  0  0  0
  -1.40970  -1.28980  -0.89000 H   0  0  0  0  0  0
  -1.40970  -1.28980   0.89000 H   0  0  0  0  0  0
  -2.75370   0.79390   0.89000 H   0  0  0  0  0  0
  -2.75370   0.79390  -0.89000 H   0  0  0  0  0  0
  -3.90560  -1.40190  -0.89000 H   0  0  0  0  0  0
  -3.90560  -1.40190   0.89000 H   0  0  0  0  0  0
  -8.47760  -0.45930   0.00000 H   0  0  0  0  0  0
  -7.64500   0.83800   0.89000 H   0  0  0  0  0  0
  -7.64500   0.83800  -0.89000 H   0  0  0  0  0  0
  1  2  1  0  0  0
  2  3  1  0  0  0
  3  4  1  0  0  0
  4  5  1  0  0  0
  5  6  1  0  0  0
  6  7  1  0  0  0
  7  8  1  0  0  0
  8  9  1  0  0  0
  9 10  1  0  0  0
 10 11  1  0  0  0
 11 12  1  0  0  0
 12 13  2  0  0  0
 12 14  1  0  0  0
 14 15  1  0  0  0
  1 16  1  0  0  0
  1 17  1  0  0  0
  1 18  1  0  0  0
  2 19  1  0  0  0
  2 20  1  0  0  0
  3 21  1  0  0  0
  3 22  1  0  0  0
  4 23  1  0  0  0
  4 24  1  0  0  0
  5 25  1  0  0  0
  5 26  1  0  0  0
  6 27  1  0  0  0
  6 28  1  0  0  0
  7 29  1  0  0  0
  7 30  1  0  0  0
  8 31  1  0  0  0
  8 32  1  0  0  0
  9 33  1  0  0  0
  9 34  1  0  0  0
 10 35  1  0  0  0
 10 36  1  0  0  0
 11 37  1  0  0  0
 11 38  1  0  0  0
 15 39  1  0  0  0
 15 40  1  0  0  0
 15 41  1  0  0  0
M  END
