http://cactus.nci.nih.gov/chemical/structure/n-dotriacontane/file?format=sdf&get3d=True
__Jmol-12_06131109073D 1   1.00000     0.00000     0
Jmol version 12.1.38_dev  2011-02-16 08:29 EXTRACT: ({0:97})
 98 97  0  0  0  0              1 V2000
  19.36420  -0.39630   0.00000 C   0  0  0  0  0  0
  18.11290   0.48410   0.00000 C   0  0  0  0  0  0
  16.86570  -0.40220   0.00000 C   0  0  0  0  0  0
  15.61440   0.47830   0.00000 C   0  0  0  0  0  0
  14.36730  -0.40800   0.00000 C   0  0  0  0  0  0
  13.11590   0.47240   0.00000 C   0  0  0  0  0  0
  11.86880  -0.41390   0.00000 C   0  0  0  0  0  0
  10.61750   0.46660   0.00000 C   0  0  0  0  0  0
   9.37030  -0.41970   0.00000 C   0  0  0  0  0  0
   8.11900   0.46070   0.00000 C   0  0  0  0  0  0
   6.87180  -0.42560   0.00000 C   0  0  0  0  0  0
   5.62050   0.45480   0.00000 C   0  0  0  0  0  0
   4.37340  -0.43140   0.00000 C   0  0  0  0  0  0
   3.12210   0.44900   0.00000 C   0  0  0  0  0  0
   1.87490  -0.43730   0.00000 C   0  0  0  0  0  0
   0.62360   0.44310   0.00000 C   0  0  0  0  0  0
  -0.62360  -0.44310   0.00000 C   0  0  0  0  0  0
  -1.87490   0.43730   0.00000 C   0  0  0  0  0  0
  -3.12210  -0.44900   0.00000 C   0  0  0  0  0  0
  -4.37340   0.43140   0.00000 C   0  0  0  0  0  0
  -5.62050  -0.45480   0.00000 C   0  0  0  0  0  0
  -6.87180   0.42560   0.00000 C   0  0  0  0  0  0
  -8.11900  -0.46070   0.00000 C   0  0  0  0  0  0
  -9.37030   0.41970   0.00000 C   0  0  0  0  0  0
 -10.61750  -0.46660   0.00000 C   0  0  0  0  0  0
 -11.86880   0.41390   0.00000 C   0  0  0  0  0  0
 -13.11590  -0.47240   0.00000 C   0  0  0  0  0  0
 -14.36730   0.40800   0.00000 C   0  0  0  0  0  0
 -15.61440  -0.47830   0.00000 C   0  0  0  0  0  0
 -16.86570   0.40220   0.00000 C   0  0  0  0  0  0
 -18.11290  -0.48410   0.00000 C   0  0  0  0  0  0
 -19.36420   0.39630   0.00000 C   0  0  0  0  0  0
  20.25270   0.23510   0.00000 H   0  0  0  0  0  0
  19.36570  -1.02560   0.89000 H   0  0  0  0  0  0
  19.36570  -1.02560  -0.89000 H   0  0  0  0  0  0
  18.11140   1.11340   0.89000 H   0  0  0  0  0  0
  18.11140   1.11340  -0.89000 H   0  0  0  0  0  0
  16.86720  -1.03150  -0.89000 H   0  0  0  0  0  0
  16.86720  -1.03150   0.89000 H   0  0  0  0  0  0
  15.61290   1.10760   0.89000 H   0  0  0  0  0  0
  15.61290   1.10760  -0.89000 H   0  0  0  0  0  0
  14.36870  -1.03730  -0.89000 H   0  0  0  0  0  0
  14.36870  -1.03730   0.89000 H   0  0  0  0  0  0
  13.11450   1.10170   0.89000 H   0  0  0  0  0  0
  13.11450   1.10170  -0.89000 H   0  0  0  0  0  0
  11.87030  -1.04320  -0.89000 H   0  0  0  0  0  0
  11.87030  -1.04320   0.89000 H   0  0  0  0  0  0
  10.61600   1.09590   0.89000 H   0  0  0  0  0  0
  10.61600   1.09590  -0.89000 H   0  0  0  0  0  0
   9.37180  -1.04900  -0.89000 H   0  0  0  0  0  0
   9.37180  -1.04900   0.89000 H   0  0  0  0  0  0
   8.11750   1.09000   0.89000 H   0  0  0  0  0  0
   8.11750   1.09000  -0.89000 H   0  0  0  0  0  0
   6.87330  -1.05490  -0.89000 H   0  0  0  0  0  0
   6.87330  -1.05490   0.89000 H   0  0  0  0  0  0
   5.61910   1.08420   0.89000 H   0  0  0  0  0  0
   5.61910   1.08420  -0.89000 H   0  0  0  0  0  0
   4.37480  -1.06070  -0.89000 H   0  0  0  0  0  0
   4.37480  -1.06070   0.89000 H   0  0  0  0  0  0
   3.12060   1.07830   0.89000 H   0  0  0  0  0  0
   3.12060   1.07830  -0.89000 H   0  0  0  0  0  0
   1.87640  -1.06660  -0.89000 H   0  0  0  0  0  0
   1.87640  -1.06660   0.89000 H   0  0  0  0  0  0
   0.62210   1.07240   0.89000 H   0  0  0  0  0  0
   0.62210   1.07240  -0.89000 H   0  0  0  0  0  0
  -0.62210  -1.07240  -0.89000 H   0  0  0  0  0  0
  -0.62210  -1.07240   0.89000 H   0  0  0  0  0  0
  -1.87640   1.06660   0.89000 H   0  0  0  0  0  0
  -1.87640   1.06660  -0.89000 H   0  0  0  0  0  0
  -3.12060  -1.07830  -0.89000 H   0  0  0  0  0  0
  -3.12060  -1.07830   0.89000 H   0  0  0  0  0  0
  -4.37480   1.06070   0.89000 H   0  0  0  0  0  0
  -4.37480   1.06070  -0.89000 H   0  0  0  0  0  0
  -5.61910  -1.08420  -0.89000 H   0  0  0  0  0  0
  -5.61910  -1.08420   0.89000 H   0  0  0  0  0  0
  -6.87330   1.05490   0.89000 H   0  0  0  0  0  0
  -6.87330   1.05490  -0.89000 H   0  0  0  0  0  0
  -8.11750  -1.09000  -0.89000 H   0  0  0  0  0  0
  -8.11750  -1.09000   0.89000 H   0  0  0  0  0  0
  -9.37180   1.04900   0.89000 H   0  0  0  0  0  0
  -9.37180   1.04900  -0.89000 H   0  0  0  0  0  0
 -10.61600  -1.09590  -0.89000 H   0  0  0  0  0  0
 -10.61600  -1.09590   0.89000 H   0  0  0  0  0  0
 -11.87030   1.04320   0.89000 H   0  0  0  0  0  0
 -11.87030   1.04320  -0.89000 H   0  0  0  0  0  0
 -13.11450  -1.10170  -0.89000 H   0  0  0  0  0  0
 -13.11450  -1.10170   0.89000 H   0  0  0  0  0  0
 -14.36870   1.03730   0.89000 H   0  0  0  0  0  0
 -14.36870   1.03730  -0.89000 H   0  0  0  0  0  0
 -15.61290  -1.10760  -0.89000 H   0  0  0  0  0  0
 -15.61290  -1.10760   0.89000 H   0  0  0  0  0  0
 -16.86720   1.03150   0.89000 H   0  0  0  0  0  0
 -16.86720   1.03150  -0.89000 H   0  0  0  0  0  0
 -18.11140  -1.11340  -0.89000 H   0  0  0  0  0  0
 -18.11140  -1.11340   0.89000 H   0  0  0  0  0  0
 -20.25270  -0.23510   0.00000 H   0  0  0  0  0  0
 -19.36570   1.02560   0.89000 H   0  0  0  0  0  0
 -19.36570   1.02560  -0.89000 H   0  0  0  0  0  0
  1  2  1  0  0  0
  2  3  1  0  0  0
  3  4  1  0  0  0
  4  5  1  0  0  0
  5  6  1  0  0  0
  6  7  1  0  0  0
  7  8  1  0  0  0
  8  9  1  0  0  0
  9 10  1  0  0  0
 10 11  1  0  0  0
 11 12  1  0  0  0
 12 13  1  0  0  0
 13 14  1  0  0  0
 14 15  1  0  0  0
 15 16  1  0  0  0
 16 17  1  0  0  0
 17 18  1  0  0  0
 18 19  1  0  0  0
 19 20  1  0  0  0
 20 21  1  0  0  0
 21 22  1  0  0  0
 22 23  1  0  0  0
 23 24  1  0  0  0
 24 25  1  0  0  0
 25 26  1  0  0  0
 26 27  1  0  0  0
 27 28  1  0  0  0
 28 29  1  0  0  0
 29 30  1  0  0  0
 30 31  1  0  0  0
 31 32  1  0  0  0
  1 33  1  0  0  0
  1 34  1  0  0  0
  1 35  1  0  0  0
  2 36  1  0  0  0
  2 37  1  0  0  0
  3 38  1  0  0  0
  3 39  1  0  0  0
  4 40  1  0  0  0
  4 41  1  0  0  0
  5 42  1  0  0  0
  5 43  1  0  0  0
  6 44  1  0  0  0
  6 45  1  0  0  0
  7 46  1  0  0  0
  7 47  1  0  0  0
  8 48  1  0  0  0
  8 49  1  0  0  0
  9 50  1  0  0  0
  9 51  1  0  0  0
 10 52  1  0  0  0
 10 53  1  0  0  0
 11 54  1  0  0  0
 11 55  1  0  0  0
 12 56  1  0  0  0
 12 57  1  0  0  0
 13 58  1  0  0  0
 13 59  1  0  0  0
 14 60  1  0  0  0
 14 61  1  0  0  0
 15 62  1  0  0  0
 15 63  1  0  0  0
 16 64  1  0  0  0
 16 65  1  0  0  0
 17 66  1  0  0  0
 17 67  1  0  0  0
 18 68  1  0  0  0
 18 69  1  0  0  0
 19 70  1  0  0  0
 19 71  1  0  0  0
 20 72  1  0  0  0
 20 73  1  0  0  0
 21 74  1  0  0  0
 21 75  1  0  0  0
 22 76  1  0  0  0
 22 77  1  0  0  0
 23 78  1  0  0  0
 23 79  1  0  0  0
 24 80  1  0  0  0
 24 81  1  0  0  0
 25 82  1  0  0  0
 25 83  1  0  0  0
 26 84  1  0  0  0
 26 85  1  0  0  0
 27 86  1  0  0  0
 27 87  1  0  0  0
 28 88  1  0  0  0
 28 89  1  0  0  0
 29 90  1  0  0  0
 29 91  1  0  0  0
 30 92  1  0  0  0
 30 93  1  0  0  0
 31 94  1  0  0  0
 31 95  1  0  0  0
 32 96  1  0  0  0
 32 97  1  0  0  0
 32 98  1  0  0  0
M  END
