
 OpenBabel11071014323D

 54 53  0  0  0  0  0  0  0  0999 V2000
  -11.8140   -0.5516    0.0195 C   0  0  0  0  0
  -10.5594    0.3063   -0.0241 C   0  0  0  0  0
   -9.2895   -0.5432    0.0538 C   0  0  0  0  0
   -8.0354    0.3313   -0.0089 C   0  0  0  0  0
   -6.7525   -0.5025    0.0627 C   0  0  0  0  0
   -5.5135    0.3875   -0.0678 C   0  0  0  0  0
   -4.2116   -0.4201   -0.0299 C   0  0  0  0  0
   -3.0024    0.4817   -0.3082 C   0  0  0  0  0
   -1.7069   -0.2822   -0.3301 C   0  0  0  0  0
   -0.6016    0.0984    0.3344 C   0  0  0  0  0
    0.6971   -0.6598    0.3103 C   0  0  0  0  0
    1.8989    0.2511    0.0293 C   0  0  0  0  0
    3.2092   -0.5426    0.0682 C   0  0  0  0  0
    4.4363    0.3635   -0.0657 C   0  0  0  0  0
    5.7320   -0.4501    0.0067 C   0  0  0  0  0
    6.9703    0.4457   -0.0602 C   0  0  0  0  0
    8.2558   -0.3788    0.0147 C   0  0  0  0  0
    9.4922    0.4894   -0.0345 C   0  0  0  0  0
    9.5013    1.7080   -0.0924 O   0  0  0  0  0
   10.6319   -0.2411   -0.0020 O   0  0  0  0  0
  -12.7065    0.0799   -0.0342 H   0  0  0  0  0
  -11.8627   -1.1298    0.9476 H   0  0  0  0  0
  -11.8417   -1.2497   -0.8233 H   0  0  0  0  0
  -10.5823    1.0182    0.8093 H   0  0  0  0  0
  -10.5592    0.8926   -0.9506 H   0  0  0  0  0
   -9.2781   -1.2620   -0.7745 H   0  0  0  0  0
   -9.2901   -1.1220    0.9852 H   0  0  0  0  0
   -8.0490    1.0522    0.8177 H   0  0  0  0  0
   -8.0440    0.9099   -0.9408 H   0  0  0  0  0
   -6.7548   -1.2478   -0.7419 H   0  0  0  0  0
   -6.7192   -1.0496    1.0124 H   0  0  0  0  0
   -5.5062    1.1281    0.7414 H   0  0  0  0  0
   -5.5693    0.9435   -1.0118 H   0  0  0  0  0
   -4.2552   -1.2206   -0.7791 H   0  0  0  0  0
   -4.1052   -0.9019    0.9500 H   0  0  0  0  0
   -2.9665    1.2832    0.4398 H   0  0  0  0  0
   -3.1280    0.9602   -1.2869 H   0  0  0  0  0
   -1.6825   -1.1830   -0.9396 H   0  0  0  0  0
   -0.6273    1.0001    0.9429 H   0  0  0  0  0
    0.6642   -1.4611   -0.4379 H   0  0  0  0  0
    0.8277   -1.1373    1.2888 H   0  0  0  0  0
    1.9355    1.0540    0.7763 H   0  0  0  0  0
    1.7873    0.7297   -0.9517 H   0  0  0  0  0
    3.2101   -1.2849   -0.7394 H   0  0  0  0  0
    3.2725   -1.0953    1.0135 H   0  0  0  0  0
    4.4286    1.1111    0.7368 H   0  0  0  0  0
    4.3943    0.9078   -1.0167 H   0  0  0  0  0
    5.7563   -1.1728   -0.8180 H   0  0  0  0  0
    5.7513   -1.0257    0.9403 H   0  0  0  0  0
    6.9479    1.1687    0.7648 H   0  0  0  0  0
    6.9583    1.0275   -0.9901 H   0  0  0  0  0
    8.2945   -1.0769   -0.8289 H   0  0  0  0  0
    8.2774   -0.9472    0.9513 H   0  0  0  0  0
   10.4809   -1.2038    0.0463 H   0  0  0  0  0
  1  2  1  0  0  0
  1 21  1  0  0  0
  1 22  1  0  0  0
  1 23  1  0  0  0
  2  3  1  0  0  0
  2 24  1  0  0  0
  2 25  1  0  0  0
  3  4  1  0  0  0
  3 26  1  0  0  0
  3 27  1  0  0  0
  4  5  1  0  0  0
  4 28  1  0  0  0
  4 29  1  0  0  0
  5  6  1  0  0  0
  5 30  1  0  0  0
  5 31  1  0  0  0
  6  7  1  0  0  0
  6 32  1  0  0  0
  6 33  1  0  0  0
  7  8  1  0  0  0
  7 34  1  0  0  0
  7 35  1  0  0  0
  9  8  1  0  0  0
  8 36  1  0  0  0
  8 37  1  0  0  0
  9 10  2  0  0  0
  9 38  1  0  0  0
 10 11  1  0  0  0
 10 39  1  0  0  0
 11 12  1  0  0  0
 11 40  1  0  0  0
 11 41  1  0  0  0
 12 13  1  0  0  0
 12 42  1  0  0  0
 12 43  1  0  0  0
 13 14  1  0  0  0
 13 44  1  0  0  0
 13 45  1  0  0  0
 14 15  1  0  0  0
 14 46  1  0  0  0
 14 47  1  0  0  0
 15 16  1  0  0  0
 15 48  1  0  0  0
 15 49  1  0  0  0
 16 17  1  0  0  0
 16 50  1  0  0  0
 16 51  1  0  0  0
 17 18  1  0  0  0
 17 52  1  0  0  0
 17 53  1  0  0  0
 18 19  2  0  0  0
 18 20  1  0  0  0
 20 54  1  0  0  0
M  END
