
 OpenBabel11021016333D

161160  0  0  0  0  0  0  0  0999 V2000
   -5.0911    9.2085   -0.0065 C   0  0  0  0  0
   -3.6636    9.6580   -0.2205 C   0  0  0  0  0
   -5.2603    7.7147   -0.0498 C   0  0  0  0  0
   -2.4628    9.0598   -0.3483 C   0  0  0  0  0
   -1.8239    7.6900   -0.3585 C   0  0  0  0  0
   -2.5825    6.4440   -0.6934 C   0  0  0  0  0
   -2.2924    5.1724   -0.3618 C   0  0  0  0  0
   -1.0499    4.5955    0.2521 C   0  0  0  0  0
    0.1717    5.5013    0.2994 C   0  0  0  0  0
    7.6557    4.4355    0.2425 C   0  0  0  0  0
    6.2082    4.2371   -0.0653 C   0  0  0  0  0
    8.1742    5.5283    0.4096 O   0  0  0  0  0
    8.3265    3.2609    0.4466 O   0  0  0  0  0
    5.2450    5.4131    0.0351 C   0  0  0  0  0
    3.8674    4.7605    0.0005 C   0  0  0  0  0
    2.6691    5.6462    0.2377 C   0  0  0  0  0
    1.4595    4.7156    0.3784 C   0  0  0  0  0
  -10.3823   -0.9977    0.0044 C   0  0  0  0  0
   -8.9571   -0.4622    0.0960 C   0  0  0  0  0
  -10.2747   -2.5226    0.0806 C   0  0  0  0  0
   -8.6830    0.8678   -0.5092 C   0  0  0  0  0
   -7.4543    1.3837   -0.6849 C   0  0  0  0  0
   -6.0621    0.9205   -0.3116 C   0  0  0  0  0
   -5.8206   -0.4955    0.1433 C   0  0  0  0  0
    3.3290    1.2840   -0.0662 C   0  0  0  0  0
    2.1557    0.2968   -0.0575 C   0  0  0  0  0
    4.6453    0.5667   -0.0594 C   0  0  0  0  0
    0.8576    1.0779   -0.0422 C   0  0  0  0  0
   -0.4030    0.2176    0.0432 C   0  0  0  0  0
   -1.5757    1.1823   -0.0357 C   0  0  0  0  0
   -2.9887    0.6771    0.1502 C   0  0  0  0  0
   -3.2707   -0.7723   -0.2061 C   0  0  0  0  0
   -4.6748   -1.2031    0.1230 C   0  0  0  0  0
   -3.0279   -7.3679   -0.0203 C   0  0  0  0  0
   -1.7645   -6.5684    0.0331 C   0  0  0  0  0
   -3.0635   -8.7224   -0.0199 C   0  0  0  0  0
   -1.7820   -5.0731   -0.0605 C   0  0  0  0  0
   -0.6110   -4.3947   -0.0038 C   0  0  0  0  0
    0.7301   -5.0915    0.1697 C   0  0  0  0  0
    1.9857   -4.2487   -0.0930 C   0  0  0  0  0
    3.2495   -5.1202    0.0687 C   0  0  0  0  0
    4.5557   -4.3331   -0.1136 C   0  0  0  0  0
    7.2970   -0.3918   -0.0622 C   0  0  0  0  0
    8.5713   -1.0103    0.0755 O   0  0  0  0  0
    7.0906    1.0550    0.3721 C   0  0  0  0  0
    8.5795   -2.3916   -0.0013 C   0  0  0  0  0
    7.2096   -3.0801    0.0348 C   0  0  0  0  0
    9.6374   -3.0074   -0.0557 O   0  0  0  0  0
    7.1857   -4.5873   -0.1629 C   0  0  0  0  0
    5.7962   -5.2339    0.0640 C   0  0  0  0  0
    8.0574    2.0428   -0.3212 C   0  0  0  0  0
    5.6809    1.4461    0.1152 O   0  0  0  0  0
    4.7276   -0.6427   -0.1947 O   0  0  0  0  0
   -7.6146    4.7604    0.5212 C   0  0  0  0  0
   -6.3564    5.5721    0.3308 C   0  0  0  0  0
   -6.6064    7.0870    0.2615 C   0  0  0  0  0
    3.2291  -10.1285   -0.0789 C   0  0  0  0  0
    1.9466   -9.3260   -0.0286 C   0  0  0  0  0
    0.6686  -10.1884   -0.0133 C   0  0  0  0  0
   -0.5100   -9.2214   -0.0287 C   0  0  0  0  0
   -1.9373   -9.7636    0.0191 C   0  0  0  0  0
  -11.3724   -4.7442    0.0308 C   0  0  0  0  0
  -11.6108   -3.2415    0.0817 C   0  0  0  0  0
   -5.7116    9.6698   -0.7846 H   0  0  0  0  0
   -5.4381    9.6042    0.9547 H   0  0  0  0  0
   -3.6138   10.7507   -0.2493 H   0  0  0  0  0
   -4.5376    7.2843    0.6501 H   0  0  0  0  0
   -5.0462    7.4210   -1.0788 H   0  0  0  0  0
   -1.6485    9.7891   -0.4351 H   0  0  0  0  0
   -1.3638    7.5836    0.6286 H   0  0  0  0  0
   -1.0223    7.7545   -1.1043 H   0  0  0  0  0
   -3.4260    6.5504   -1.3580 H   0  0  0  0  0
   -3.0090    4.4068   -0.6691 H   0  0  0  0  0
   -0.7886    3.7493   -0.3926 H   0  0  0  0  0
   -1.2666    4.1869    1.2455 H   0  0  0  0  0
    0.1107    6.1743    1.1594 H   0  0  0  0  0
    0.2258    6.0916   -0.6187 H   0  0  0  0  0
    5.8879    3.5513    0.7219 H   0  0  0  0  0
    6.1093    3.7829   -1.0555 H   0  0  0  0  0
    5.3766    6.1103   -0.7988 H   0  0  0  0  0
    5.3902    5.9674    0.9682 H   0  0  0  0  0
    3.8417    3.9854    0.7742 H   0  0  0  0  0
    3.7436    4.2541   -0.9667 H   0  0  0  0  0
    2.5413    6.3326   -0.6067 H   0  0  0  0  0
    2.7879    6.2439    1.1471 H   0  0  0  0  0
    1.4766    3.9760   -0.4320 H   0  0  0  0  0
    1.5112    4.1598    1.3228 H   0  0  0  0  0
  -10.8640   -0.6967   -0.9322 H   0  0  0  0  0
  -10.9850   -0.6060    0.8326 H   0  0  0  0  0
   -8.3280   -1.1746   -0.4468 H   0  0  0  0  0
   -8.6662   -0.4463    1.1537 H   0  0  0  0  0
   -9.7096   -2.8038    0.9793 H   0  0  0  0  0
   -9.6884   -2.8723   -0.7803 H   0  0  0  0  0
   -9.5379    1.4476   -0.8529 H   0  0  0  0  0
   -7.4285    2.3597   -1.1745 H   0  0  0  0  0
   -5.7129    1.5975    0.4780 H   0  0  0  0  0
   -5.4625    1.0970   -1.2116 H   0  0  0  0  0
   -6.6429   -1.0281    0.5971 H   0  0  0  0  0
    3.2744    1.8992    0.8364 H   0  0  0  0  0
    3.2829    1.9167   -0.9577 H   0  0  0  0  0
    2.2158   -0.3544    0.8228 H   0  0  0  0  0
    2.1936   -0.3508   -0.9418 H   0  0  0  0  0
    0.8114    1.6949   -0.9489 H   0  0  0  0  0
    0.8682    1.7656    0.8128 H   0  0  0  0  0
   -0.4196   -0.3444    0.9831 H   0  0  0  0  0
   -0.4354   -0.4979   -0.7858 H   0  0  0  0  0
   -1.5297    1.6928   -1.0066 H   0  0  0  0  0
   -1.4348    1.9499    0.7323 H   0  0  0  0  0
   -3.5945    1.3429   -0.4674 H   0  0  0  0  0
   -3.2938    0.8621    1.1885 H   0  0  0  0  0
   -2.6047   -1.4033    0.3969 H   0  0  0  0  0
   -3.0473   -0.9856   -1.2560 H   0  0  0  0  0
   -4.7387   -2.2361    0.4702 H   0  0  0  0  0
   -3.9693   -6.8240   -0.0464 H   0  0  0  0  0
   -1.1716   -6.8781   -0.8283 H   0  0  0  0  0
   -1.2803   -6.8029    0.9860 H   0  0  0  0  0
   -4.0547   -9.1793   -0.0497 H   0  0  0  0  0
   -2.7250   -4.5489   -0.1758 H   0  0  0  0  0
   -0.6186   -3.3100   -0.0617 H   0  0  0  0  0
    0.7781   -5.9562   -0.5039 H   0  0  0  0  0
    0.7815   -5.4748    1.1969 H   0  0  0  0  0
    2.0184   -3.4076    0.6091 H   0  0  0  0  0
    1.9518   -3.8325   -1.1065 H   0  0  0  0  0
    3.2183   -5.9395   -0.6605 H   0  0  0  0  0
    3.2444   -5.5818    1.0645 H   0  0  0  0  0
    4.5753   -3.5277    0.6298 H   0  0  0  0  0
    4.5663   -3.8713   -1.1069 H   0  0  0  0  0
    6.6446   -0.9227    0.6246 H   0  0  0  0  0
    6.9792   -0.5023   -1.1065 H   0  0  0  0  0
    7.2314    1.1445    1.4554 H   0  0  0  0  0
    6.5971   -2.6571   -0.7678 H   0  0  0  0  0
    6.7721   -2.8743    1.0177 H   0  0  0  0  0
    7.9071   -5.0629    0.5130 H   0  0  0  0  0
    7.5294   -4.8169   -1.1786 H   0  0  0  0  0
    5.7149   -6.0963   -0.6098 H   0  0  0  0  0
    5.7757   -5.6447    1.0816 H   0  0  0  0  0
    9.0429    1.5771   -0.4210 H   0  0  0  0  0
    7.7186    2.3148   -1.3257 H   0  0  0  0  0
   -7.3401    3.7382    0.7946 H   0  0  0  0  0
   -8.1947    4.7257   -0.4056 H   0  0  0  0  0
   -8.2388    5.1644    1.3205 H   0  0  0  0  0
   -5.8492    5.2300   -0.5819 H   0  0  0  0  0
   -5.6708    5.3600    1.1615 H   0  0  0  0  0
   -7.3285    7.3251   -0.5275 H   0  0  0  0  0
   -7.0027    7.4541    1.2132 H   0  0  0  0  0
    4.0869   -9.4472   -0.1122 H   0  0  0  0  0
    3.2633  -10.7584   -0.9719 H   0  0  0  0  0
    3.3324  -10.7600    0.8074 H   0  0  0  0  0
    1.9246   -8.6509   -0.8942 H   0  0  0  0  0
    1.9673   -8.6848    0.8625 H   0  0  0  0  0
    0.6431  -10.8172    0.8826 H   0  0  0  0  0
    0.6376  -10.8403   -0.8927 H   0  0  0  0  0
   -0.4011   -8.6480   -0.9533 H   0  0  0  0  0
   -0.3654   -8.5682    0.8354 H   0  0  0  0  0
   -2.0846  -10.4448   -0.8279 H   0  0  0  0  0
   -2.0648  -10.3613    0.9298 H   0  0  0  0  0
  -12.3209   -5.2861    0.0390 H   0  0  0  0  0
  -10.7775   -5.0745    0.8895 H   0  0  0  0  0
  -10.8279   -5.0199   -0.8794 H   0  0  0  0  0
  -12.2068   -2.9341   -0.7841 H   0  0  0  0  0
  -12.1736   -2.9844    0.9853 H   0  0  0  0  0
  1  2  1  0  0  0
  1  3  1  0  0  0
  1 64  1  0  0  0
  1 65  1  0  0  0
  2  4  2  0  0  0
  2 66  1  0  0  0
  3 56  1  0  0  0
  3 67  1  0  0  0
  3 68  1  0  0  0
  4  5  1  0  0  0
  4 69  1  0  0  0
  5  6  1  0  0  0
  5 70  1  0  0  0
  5 71  1  0  0  0
  6  7  2  0  0  0
  6 72  1  0  0  0
  7  8  1  0  0  0
  7 73  1  0  0  0
  8  9  1  0  0  0
  8 74  1  0  0  0
  8 75  1  0  0  0
  9 17  1  0  0  0
  9 76  1  0  0  0
  9 77  1  0  0  0
 10 11  1  0  0  0
 10 12  2  0  0  0
 10 13  1  0  0  0
 11 14  1  0  0  0
 11 78  1  0  0  0
 11 79  1  0  0  0
 13 51  1  0  0  0
 14 15  1  0  0  0
 14 80  1  0  0  0
 14 81  1  0  0  0
 15 16  1  0  0  0
 15 82  1  0  0  0
 15 83  1  0  0  0
 16 17  1  0  0  0
 16 84  1  0  0  0
 16 85  1  0  0  0
 17 86  1  0  0  0
 17 87  1  0  0  0
 18 19  1  0  0  0
 18 20  1  0  0  0
 18 88  1  0  0  0
 18 89  1  0  0  0
 19 21  1  0  0  0
 19 90  1  0  0  0
 19 91  1  0  0  0
 20 63  1  0  0  0
 20 92  1  0  0  0
 20 93  1  0  0  0
 21 22  2  0  0  0
 21 94  1  0  0  0
 22 23  1  0  0  0
 22 95  1  0  0  0
 23 24  1  0  0  0
 23 96  1  0  0  0
 23 97  1  0  0  0
 24 33  2  0  0  0
 24 98  1  0  0  0
 25 26  1  0  0  0
 25 27  1  0  0  0
 25 99  1  0  0  0
 25100  1  0  0  0
 26 28  1  0  0  0
 26101  1  0  0  0
 26102  1  0  0  0
 27 52  1  0  0  0
 27 53  2  0  0  0
 28 29  1  0  0  0
 28103  1  0  0  0
 28104  1  0  0  0
 29 30  1  0  0  0
 29105  1  0  0  0
 29106  1  0  0  0
 30 31  1  0  0  0
 30107  1  0  0  0
 30108  1  0  0  0
 31 32  1  0  0  0
 31109  1  0  0  0
 31110  1  0  0  0
 32 33  1  0  0  0
 32111  1  0  0  0
 32112  1  0  0  0
 33113  1  0  0  0
 34 35  1  0  0  0
 34 36  2  0  0  0
 34114  1  0  0  0
 35 37  1  0  0  0
 35115  1  0  0  0
 35116  1  0  0  0
 36 61  1  0  0  0
 36117  1  0  0  0
 37 38  2  0  0  0
 37118  1  0  0  0
 38 39  1  0  0  0
 38119  1  0  0  0
 39 40  1  0  0  0
 39120  1  0  0  0
 39121  1  0  0  0
 40 41  1  0  0  0
 40122  1  0  0  0
 40123  1  0  0  0
 41 42  1  0  0  0
 41124  1  0  0  0
 41125  1  0  0  0
 42 50  1  0  0  0
 42126  1  0  0  0
 42127  1  0  0  0
 43 44  1  0  0  0
 43 45  1  0  0  0
 43128  1  0  0  0
 43129  1  0  0  0
 44 46  1  0  0  0
 45 51  1  0  0  0
 45 52  1  0  0  0
 45130  1  0  0  0
 46 47  1  0  0  0
 46 48  2  0  0  0
 47 49  1  0  0  0
 47131  1  0  0  0
 47132  1  0  0  0
 49 50  1  0  0  0
 49133  1  0  0  0
 49134  1  0  0  0
 50135  1  0  0  0
 50136  1  0  0  0
 51137  1  0  0  0
 51138  1  0  0  0
 54 55  1  0  0  0
 54139  1  0  0  0
 54140  1  0  0  0
 54141  1  0  0  0
 55 56  1  0  0  0
 55142  1  0  0  0
 55143  1  0  0  0
 56144  1  0  0  0
 56145  1  0  0  0
 57 58  1  0  0  0
 57146  1  0  0  0
 57147  1  0  0  0
 57148  1  0  0  0
 58 59  1  0  0  0
 58149  1  0  0  0
 58150  1  0  0  0
 59 60  1  0  0  0
 59151  1  0  0  0
 59152  1  0  0  0
 60 61  1  0  0  0
 60153  1  0  0  0
 60154  1  0  0  0
 61155  1  0  0  0
 61156  1  0  0  0
 62 63  1  0  0  0
 62157  1  0  0  0
 62158  1  0  0  0
 62159  1  0  0  0
 63160  1  0  0  0
 63161  1  0  0  0
M  END
