
 OpenBabel11021016523D

155154  0  0  0  0  0  0  0  0999 V2000
   -0.4918    6.2906    0.3961 C   0  0  0  0  0
   -1.5290    5.1720    0.1993 C   0  0  0  0  0
    0.6616    5.7535    1.0804 O   0  0  0  0  0
    0.5233    5.6157    2.4256 C   0  0  0  0  0
   -0.4297    6.0323    3.0728 O   0  0  0  0  0
    1.5858    4.7167    3.0023 C   0  0  0  0  0
    3.0081    5.0181    2.5372 C   0  0  0  0  0
    3.9616    3.9554    3.0851 C   0  0  0  0  0
    5.4231    4.2299    2.7334 C   0  0  0  0  0
    6.3045    3.0887    3.2444 C   0  0  0  0  0
    7.7915    3.3518    3.0114 C   0  0  0  0  0
    8.6242    2.1733    3.5180 C   0  0  0  0  0
   10.0971    2.4322    3.3930 C   0  0  0  0  0
   10.9284    2.7776    4.3903 C   0  0  0  0  0
   10.5549    3.0602    5.8162 C   0  0  0  0  0
   10.8311    1.8767    6.6951 C   0  0  0  0  0
   11.8127    1.7514    7.6012 C   0  0  0  0  0
   12.9011    2.7376    7.9023 C   0  0  0  0  0
   12.5731    3.5585    9.1144 C   0  0  0  0  0
   12.9460    3.2978   10.3787 C   0  0  0  0  0
   13.7130    2.0921   10.8370 C   0  0  0  0  0
   15.2070    2.3637   10.8632 C   0  0  0  0  0
   -2.8458    5.6466   -0.4278 C   0  0  0  0  0
   -0.9690    4.0236   -0.4958 O   0  0  0  0  0
   -0.4864    4.1891   -1.7568 C   0  0  0  0  0
   -0.4792    5.2431   -2.3768 O   0  0  0  0  0
    0.1498    2.9141   -2.2500 C   0  0  0  0  0
   -0.8284    1.7443   -2.3046 C   0  0  0  0  0
   -0.1116    0.4582   -2.7153 C   0  0  0  0  0
   -1.0765   -0.7241   -2.8166 C   0  0  0  0  0
   -0.3269   -2.0013   -3.1971 C   0  0  0  0  0
   -1.2737   -3.1914   -3.3583 C   0  0  0  0  0
   -0.4959   -4.4503   -3.7422 C   0  0  0  0  0
   -1.4053   -5.6247   -3.9619 C   0  0  0  0  0
   -1.7739   -6.1327   -5.1500 C   0  0  0  0  0
   -1.4327   -5.5880   -6.5066 C   0  0  0  0  0
   -0.2545   -6.2986   -7.1029 C   0  0  0  0  0
   -0.2602   -7.1738   -8.1218 C   0  0  0  0  0
   -1.4528   -7.7085   -8.8561 C   0  0  0  0  0
   -1.6367   -7.0264  -10.1801 C   0  0  0  0  0
   -1.2183   -7.4689  -11.3776 C   0  0  0  0  0
   -0.3951   -8.6981  -11.6319 C   0  0  0  0  0
   -1.2567   -9.8835  -12.0318 C   0  0  0  0  0
   -3.8395    4.6166   -0.2171 O   0  0  0  0  0
   -4.0247    3.7328   -1.2301 C   0  0  0  0  0
   -3.5389    3.8331   -2.3493 O   0  0  0  0  0
   -4.7599    2.4978   -0.7706 C   0  0  0  0  0
   -5.8582    2.7316    0.2651 C   0  0  0  0  0
   -6.4273    1.3891    0.7267 C   0  0  0  0  0
   -7.5668    1.5433    1.7341 C   0  0  0  0  0
   -8.0218    0.1667    2.2221 C   0  0  0  0  0
   -9.2206    0.2478    3.1668 C   0  0  0  0  0
   -9.6166   -1.1519    3.6395 C   0  0  0  0  0
  -10.8523   -1.1333    4.4912 C   0  0  0  0  0
  -12.0879   -1.4890    4.1008 C   0  0  0  0  0
  -12.5140   -1.8864    2.7174 C   0  0  0  0  0
  -12.5577   -3.3771    2.5614 C   0  0  0  0  0
  -13.6503   -4.1538    2.4779 C   0  0  0  0  0
  -15.0812   -3.7246    2.6027 C   0  0  0  0  0
  -15.7361   -3.5821    1.2601 C   0  0  0  0  0
  -16.4771   -4.5064    0.6264 C   0  0  0  0  0
  -16.7244   -5.9127    1.0897 C   0  0  0  0  0
  -18.0309   -6.0372    1.8546 C   0  0  0  0  0
   -0.9120    7.1346    0.9562 H   0  0  0  0  0
   -0.1285    6.6973   -0.5502 H   0  0  0  0  0
   -1.7747    4.7626    1.1867 H   0  0  0  0  0
    1.3064    3.6874    2.7473 H   0  0  0  0  0
    1.5395    4.8089    4.0942 H   0  0  0  0  0
    3.3059    6.0154    2.8823 H   0  0  0  0  0
    3.0663    5.0292    1.4426 H   0  0  0  0  0
    3.6706    2.9747    2.6878 H   0  0  0  0  0
    3.8590    3.9002    4.1762 H   0  0  0  0  0
    5.7387    5.1784    3.1838 H   0  0  0  0  0
    5.5377    4.3282    1.6475 H   0  0  0  0  0
    6.0153    2.1554    2.7453 H   0  0  0  0  0
    6.1285    2.9451    4.3179 H   0  0  0  0  0
    8.0852    4.2709    3.5339 H   0  0  0  0  0
    7.9806    3.5119    1.9429 H   0  0  0  0  0
    8.3834    1.2730    2.9389 H   0  0  0  0  0
    8.3538    1.9403    4.5541 H   0  0  0  0  0
   10.5203    2.2856    2.4005 H   0  0  0  0  0
   11.9867    2.8897    4.1585 H   0  0  0  0  0
    9.4956    3.3244    5.9092 H   0  0  0  0  0
   11.0982    3.9509    6.1496 H   0  0  0  0  0
   10.1289    1.0494    6.5906 H   0  0  0  0  0
   11.8510    0.8319    8.1839 H   0  0  0  0  0
   13.0847    3.4098    7.0564 H   0  0  0  0  0
   13.8414    2.1903    8.0349 H   0  0  0  0  0
   11.9940    4.4609    8.9255 H   0  0  0  0  0
   12.6532    4.0001   11.1572 H   0  0  0  0  0
   13.5067    1.2254   10.1995 H   0  0  0  0  0
   13.3673    1.8185   11.8408 H   0  0  0  0  0
   15.5797    2.6151    9.8643 H   0  0  0  0  0
   15.7465    1.4765   11.2090 H   0  0  0  0  0
   15.4474    3.1943   11.5349 H   0  0  0  0  0
   -2.7542    5.9018   -1.4876 H   0  0  0  0  0
   -3.2116    6.5375    0.0935 H   0  0  0  0  0
    1.0009    2.6902   -1.5963 H   0  0  0  0  0
    0.5544    3.1042   -3.2512 H   0  0  0  0  0
   -1.6288    1.9694   -3.0193 H   0  0  0  0  0
   -1.3076    1.5993   -1.3291 H   0  0  0  0  0
    0.6724    0.2288   -1.9830 H   0  0  0  0  0
    0.3846    0.6076   -3.6821 H   0  0  0  0  0
   -1.8456   -0.5075   -3.5677 H   0  0  0  0  0
   -1.5894   -0.8693   -1.8583 H   0  0  0  0  0
    0.4212   -2.2296   -2.4280 H   0  0  0  0  0
    0.2166   -1.8394   -4.1363 H   0  0  0  0  0
   -2.0186   -2.9631   -4.1310 H   0  0  0  0  0
   -1.8207   -3.3605   -2.4225 H   0  0  0  0  0
    0.2101   -4.7087   -2.9432 H   0  0  0  0  0
    0.1163   -4.2558   -4.6299 H   0  0  0  0  0
   -1.7604   -6.1218   -3.0603 H   0  0  0  0  0
   -2.4068   -7.0191   -5.1532 H   0  0  0  0  0
   -1.2071   -4.5164   -6.4587 H   0  0  0  0  0
   -2.3193   -5.6610   -7.1457 H   0  0  0  0  0
    0.7091   -6.0388   -6.6660 H   0  0  0  0  0
    0.6988   -7.5705   -8.4531 H   0  0  0  0  0
   -2.3722   -7.5959   -8.2709 H   0  0  0  0  0
   -1.3302   -8.7905   -8.9818 H   0  0  0  0  0
   -2.1937   -6.0910  -10.1464 H   0  0  0  0  0
   -1.4603   -6.8726  -12.2564 H   0  0  0  0  0
    0.2081   -8.9592  -10.7557 H   0  0  0  0  0
    0.3184   -8.4767  -12.4346 H   0  0  0  0  0
   -1.9474  -10.1580  -11.2272 H   0  0  0  0  0
   -0.6257  -10.7525  -12.2440 H   0  0  0  0  0
   -1.8458   -9.6642  -12.9282 H   0  0  0  0  0
   -4.0040    1.8105   -0.3722 H   0  0  0  0  0
   -5.2026    2.0304   -1.6584 H   0  0  0  0  0
   -6.6495    3.3546   -0.1685 H   0  0  0  0  0
   -5.4642    3.2735    1.1327 H   0  0  0  0  0
   -5.6222    0.7957    1.1786 H   0  0  0  0  0
   -6.7884    0.8263   -0.1431 H   0  0  0  0  0
   -8.4052    2.0714    1.2646 H   0  0  0  0  0
   -7.2360    2.1466    2.5876 H   0  0  0  0  0
   -7.1878   -0.3310    2.7326 H   0  0  0  0  0
   -8.2855   -0.4566    1.3584 H   0  0  0  0  0
  -10.0631    0.7213    2.6473 H   0  0  0  0  0
   -8.9757    0.8791    4.0297 H   0  0  0  0  0
   -8.8005   -1.5880    4.2292 H   0  0  0  0  0
   -9.7466   -1.8155    2.7771 H   0  0  0  0  0
  -10.7068   -0.8403    5.5299 H   0  0  0  0  0
  -12.8845   -1.4705    4.8433 H   0  0  0  0  0
  -11.8366   -1.4761    1.9596 H   0  0  0  0  0
  -13.4851   -1.4263    2.5052 H   0  0  0  0  0
  -11.5856   -3.8613    2.4764 H   0  0  0  0  0
  -13.5020   -5.2224    2.3271 H   0  0  0  0  0
  -15.1719   -2.7753    3.1424 H   0  0  0  0  0
  -15.6121   -4.4537    3.2259 H   0  0  0  0  0
  -15.6089   -2.6119    0.7820 H   0  0  0  0  0
  -16.9182   -4.2398   -0.3330 H   0  0  0  0  0
  -15.8974   -6.2744    1.7103 H   0  0  0  0  0
  -16.7507   -6.5673    0.2105 H   0  0  0  0  0
  -18.0165   -5.4250    2.7628 H   0  0  0  0  0
  -18.1936   -7.0776    2.1536 H   0  0  0  0  0
  -18.8825   -5.7216    1.2433 H   0  0  0  0  0
  1  2  1  0  0  0
  1  3  1  0  0  0
  1 64  1  0  0  0
  1 65  1  0  0  0
  2 23  1  0  0  0
  2 24  1  0  0  0
  2 66  1  0  0  0
  3  4  1  0  0  0
  4  5  2  0  0  0
  4  6  1  0  0  0
  6  7  1  0  0  0
  6 67  1  0  0  0
  6 68  1  0  0  0
  7  8  1  0  0  0
  7 69  1  0  0  0
  7 70  1  0  0  0
  8  9  1  0  0  0
  8 71  1  0  0  0
  8 72  1  0  0  0
  9 10  1  0  0  0
  9 73  1  0  0  0
  9 74  1  0  0  0
 10 11  1  0  0  0
 10 75  1  0  0  0
 10 76  1  0  0  0
 11 12  1  0  0  0
 11 77  1  0  0  0
 11 78  1  0  0  0
 12 13  1  0  0  0
 12 79  1  0  0  0
 12 80  1  0  0  0
 13 14  2  0  0  0
 13 81  1  0  0  0
 14 15  1  0  0  0
 14 82  1  0  0  0
 15 16  1  0  0  0
 15 83  1  0  0  0
 15 84  1  0  0  0
 16 17  2  0  0  0
 16 85  1  0  0  0
 17 18  1  0  0  0
 17 86  1  0  0  0
 18 19  1  0  0  0
 18 87  1  0  0  0
 18 88  1  0  0  0
 19 20  2  0  0  0
 19 89  1  0  0  0
 20 21  1  0  0  0
 20 90  1  0  0  0
 21 22  1  0  0  0
 21 91  1  0  0  0
 21 92  1  0  0  0
 22 93  1  0  0  0
 22 94  1  0  0  0
 22 95  1  0  0  0
 23 44  1  0  0  0
 23 96  1  0  0  0
 23 97  1  0  0  0
 24 25  1  0  0  0
 25 26  2  0  0  0
 25 27  1  0  0  0
 27 28  1  0  0  0
 27 98  1  0  0  0
 27 99  1  0  0  0
 28 29  1  0  0  0
 28100  1  0  0  0
 28101  1  0  0  0
 29 30  1  0  0  0
 29102  1  0  0  0
 29103  1  0  0  0
 30 31  1  0  0  0
 30104  1  0  0  0
 30105  1  0  0  0
 31 32  1  0  0  0
 31106  1  0  0  0
 31107  1  0  0  0
 32 33  1  0  0  0
 32108  1  0  0  0
 32109  1  0  0  0
 33 34  1  0  0  0
 33110  1  0  0  0
 33111  1  0  0  0
 34 35  2  0  0  0
 34112  1  0  0  0
 35 36  1  0  0  0
 35113  1  0  0  0
 36 37  1  0  0  0
 36114  1  0  0  0
 36115  1  0  0  0
 37 38  2  0  0  0
 37116  1  0  0  0
 38 39  1  0  0  0
 38117  1  0  0  0
 39 40  1  0  0  0
 39118  1  0  0  0
 39119  1  0  0  0
 40 41  2  0  0  0
 40120  1  0  0  0
 41 42  1  0  0  0
 41121  1  0  0  0
 42 43  1  0  0  0
 42122  1  0  0  0
 42123  1  0  0  0
 43124  1  0  0  0
 43125  1  0  0  0
 43126  1  0  0  0
 44 45  1  0  0  0
 45 46  2  0  0  0
 45 47  1  0  0  0
 47 48  1  0  0  0
 47127  1  0  0  0
 47128  1  0  0  0
 48 49  1  0  0  0
 48129  1  0  0  0
 48130  1  0  0  0
 49 50  1  0  0  0
 49131  1  0  0  0
 49132  1  0  0  0
 50 51  1  0  0  0
 50133  1  0  0  0
 50134  1  0  0  0
 51 52  1  0  0  0
 51135  1  0  0  0
 51136  1  0  0  0
 52 53  1  0  0  0
 52137  1  0  0  0
 52138  1  0  0  0
 53 54  1  0  0  0
 53139  1  0  0  0
 53140  1  0  0  0
 54 55  2  0  0  0
 54141  1  0  0  0
 55 56  1  0  0  0
 55142  1  0  0  0
 56 57  1  0  0  0
 56143  1  0  0  0
 56144  1  0  0  0
 57 58  2  0  0  0
 57145  1  0  0  0
 58 59  1  0  0  0
 58146  1  0  0  0
 59 60  1  0  0  0
 59147  1  0  0  0
 59148  1  0  0  0
 60 61  2  0  0  0
 60149  1  0  0  0
 61 62  1  0  0  0
 61150  1  0  0  0
 62 63  1  0  0  0
 62151  1  0  0  0
 62152  1  0  0  0
 63153  1  0  0  0
 63154  1  0  0  0
 63155  1  0  0  0
M  END
