http://cactus.nci.nih.gov/chemical/structure/tetrafluoroborate/file?format=sdf&get3d=True
__Jmol-12_03061216293D 1   1.00000     0.00000     0
Jmol version 12.1.38_dev  2011-02-16 08:29 EXTRACT: ({0:4})
  5  4  0  0  0  0              1 V2000
   0.00000   0.00000   0.00000 B   0  5  0  0  0  0
  -0.00000  -1.11860  -0.79100 F   0  0  0  0  0  0
   0.00000   1.11860  -0.79100 F   0  0  0  0  0  0
  -1.11860   0.00000   0.79100 F   0  0  0  0  0  0
   1.11860   0.00000   0.79100 F   0  0  0  0  0  0
  1  2  1  0  0  0
  1  3  1  0  0  0
  1  4  1  0  0  0
  1  5  1  0  0  0
M  END
