http://cactus.nci.nih.gov/chemical/structure/trifluoromethanesulfonate/file?format=sdf&get3d=True
__Jmol-12_03071213063D 1   1.00000     0.00000     0
Jmol version 12.1.38_dev  2011-02-16 08:29 EXTRACT: ({0:7})
  8  7  0  0  0  0              1 V2000
  -1.41330  -0.01100   1.31890 F   0  0  0  0  0  0
  -0.94690   0.00000   0.00000 C   0  0  0  0  0  0
   0.86710   0.00000   0.00000 S   0  0  0  0  0  0
   1.33610   0.01150  -1.37690 O   0  0  0  0  0  0
   1.33610   1.18670   0.69840 O   0  0  0  0  0  0
   1.33610  -1.19820   0.67850 O   0  5  0  0  0  0
  -1.41330  -1.13670  -0.66900 F   0  0  0  0  0  0
  -1.41330   1.14770  -0.64990 F   0  0  0  0  0  0
  1  2  1  0  0  0
  2  3  1  0  0  0
  3  4  2  0  0  0
  3  5  2  0  0  0
  3  6  1  0  0  0
  2  7  1  0  0  0
  2  8  1  0  0  0
M  END
