http://cactus.nci.nih.gov/chemical/structure/1-ethyl-3-methylimidazolium/file?format=sdf&get3d=True
__Jmol-12_03061216233D 1   1.00000     0.00000     0
Jmol version 12.1.38_dev  2011-02-16 08:29 EXTRACT: ({0:18})
 19 19  0  0  0  0              1 V2000
  -2.05870  -0.16800  -0.58430 C   0  0  0  0  0  0
  -2.79410  -0.48120   0.72030 C   0  0  0  0  0  0
  -0.64930   0.10910  -0.29590 N   0  3  0  0  0  0
   0.30500  -0.78050  -0.26690 C   0  0  0  0  0  0
   1.46660  -0.15980   0.03130 N   0  0  0  0  0  0
   1.18620   1.17080   0.18780 C   0  0  0  0  0  0
  -0.13530   1.31820  -0.02570 C   0  0  0  0  0  0
   2.78140  -0.79250   0.16290 C   0  0  0  0  0  0
  -2.13070  -1.02310  -1.25630 H   0  0  0  0  0  0
  -2.51130   0.70410  -1.05610 H   0  0  0  0  0  0
  -2.72210   0.37390   1.39240 H   0  0  0  0  0  0
  -3.84270  -0.68750   0.50580 H   0  0  0  0  0  0
  -2.34150  -1.35330   1.19220 H   0  0  0  0  0  0
   0.18540  -1.83810  -0.45060 H   0  0  0  0  0  0
   1.89020   1.95270   0.43140 H   0  0  0  0  0  0
  -0.68580   2.24620   0.01930 H   0  0  0  0  0  0
   3.28200  -0.79490  -0.80540 H   0  0  0  0  0  0
   3.38260  -0.23510   0.88120 H   0  0  0  0  0  0
   2.65800  -1.81810   0.51070 H   0  0  0  0  0  0
  1  2  1  0  0  0
  1  3  1  0  0  0
  3  4  2  0  0  0
  4  5  1  0  0  0
  5  6  1  0  0  0
  6  7  2  0  0  0
  3  7  1  0  0  0
  5  8  1  0  0  0
  1  9  1  0  0  0
  1 10  1  0  0  0
  2 11  1  0  0  0
  2 12  1  0  0  0
  2 13  1  0  0  0
  4 14  1  0  0  0
  6 15  1  0  0  0
  7 16  1  0  0  0
  8 17  1  0  0  0
  8 18  1  0  0  0
  8 19  1  0  0  0
M  END
