http://cactus.nci.nih.gov/chemical/structure/methanesulfonate/file?format=sdf&get3d=True
__Jmol-12_03071212453D 1   1.00000     0.00000     0
Jmol version 12.1.38_dev  2011-02-16 08:29 EXTRACT: ({0:7})
  8  7  0  0  0  0              1 V2000
   1.75240   0.00000   0.00000 C   0  0  0  0  0  0
  -0.06160   0.00000   0.00000 S   0  0  0  0  0  0
  -0.53060  -0.01460  -1.37690 O   0  0  0  0  0  0
  -0.53060  -1.18510   0.70110 O   0  0  0  0  0  0
  -0.53060   1.19970   0.67580 O   0  5  0  0  0  0
   2.11570   0.88450  -0.52330 H   0  0  0  0  0  0
   2.11570   0.01090   1.02760 H   0  0  0  0  0  0
   2.11570  -0.89540  -0.50440 H   0  0  0  0  0  0
  1  2  1  0  0  0
  2  3  2  0  0  0
  2  4  2  0  0  0
  2  5  1  0  0  0
  1  6  1  0  0  0
  1  7  1  0  0  0
  1  8  1  0  0  0
M  END
