string
__Jmol-12_03061215183D 1   1.00000     0.00000     0
Jmol version 12.1.38_dev  2011-02-16 08:29 EXTRACT: ({0:6})
  7  6  0  0  0  0              1 V2000
   0.00000   0.00000   0.00000 P   0  5  0  0  0  0
   0.31062  -1.58421  -0.41622 F   0  0  0  0  0  0
  -0.31348   1.31253   0.24092 F   0  0  0  0  0  0
   1.52344   0.08174   0.67935 F   0  0  0  0  0  0
  -1.34780  -0.39095  -0.28142 F   0  0  0  0  0  0
   0.63262   0.51996  -1.44842 F   0  0  0  0  0  0
  -0.69945  -0.10301   1.46859 F   0  0  0  0  0  0
  1  2  1  0  0  0
  1  3  1  0  0  0
  1  4  1  0  0  0
  1  5  1  0  0  0
  1  6  1  0  0  0
  1  7  1  0  0  0
M  END
