
 OpenBabel11021010563D

 15 14  0  0  0  0  0  0  0  0999 V2000
   -2.3556    1.0757    3.5941 F   0  0  0  0  0
   -0.9927    2.6607    2.8956 F   0  0  0  0  0
   -3.1362    2.8341    2.5852 F   0  0  0  0  0
   -2.1010    1.9359    2.5692 C   0  0  0  0  0
   -1.9659    1.1057    0.9170 S   0  0  0  0  0
   -2.5762   -0.2189    1.0370 O   0  0  0  0  0
   -2.6885    1.9770   -0.0186 O   0  0  0  0  0
    1.8733    0.2801    1.3895 O   0  0  0  0  0
    0.0234   -0.0083    2.9534 O   0  0  0  0  0
    0.4232    0.1063    1.5512 S   0  0  0  0  0
   -0.4005    1.1341    0.6691 N   0  0  0  0  0
    1.1404   -2.2924    0.6215 F   0  0  0  0  0
   -0.8853   -2.2562    1.4018 F   0  0  0  0  0
   -0.4267   -1.3490   -0.5527 F   0  0  0  0  0
    0.0252   -1.5037    0.7252 C   0  0  0  0  0
  1  4  1  0  0  0
  2  4  1  0  0  0
  3  4  1  0  0  0
  4  5  1  0  0  0
 11  5  1  0  0  0
  5  6  1  0  0  0
  5  7  1  0  0  0
 10  8  1  0  0  0
 10  9  1  0  0  0
 10 15  1  0  0  0
 11 10  1  0  0  0
 12 15  1  0  0  0
 13 15  1  0  0  0
 14 15  1  0  0  0
M  END
