C2H2F4
APtclcactv11031115003D 0   0.00000     0.00000
 
  8  7  0  0  0  0  0  0  0  0999 V2000
   -0.4323   -1.1420   -0.7909 F   0  0  0  0  0  0  0  0  0  0  0  0
   -0.4040   -0.0000    0.0166 C   0  0  0  0  0  0  0  0  0  0  0  0
    0.8754   -0.0003    0.8556 C   0  0  0  0  0  0  0  0  0  0  0  0
    1.9887   -0.0000    0.0083 F   0  0  0  0  0  0  0  0  0  0  0  0
   -0.4323    1.1425   -0.7902 F   0  0  0  0  0  0  0  0  0  0  0  0
   -1.5173   -0.0003    0.8639 F   0  0  0  0  0  0  0  0  0  0  0  0
    0.8975    0.8895    1.4848 H   0  0  0  0  0  0  0  0  0  0  0  0
    0.8975   -0.8904    1.4843 H   0  0  0  0  0  0  0  0  0  0  0  0
  1  2  1  0  0  0  0
  2  3  1  0  0  0  0
  3  4  1  0  0  0  0
  2  5  1  0  0  0  0
  2  6  1  0  0  0  0
  3  7  1  0  0  0  0
  3  8  1  0  0  0  0
M  END
$$$$
