http://cactus.nci.nih.gov/chemical/structure/1,1,2-TRICHLOROETHANE/file?format=sdf&get3d=True
__Jmol-12_10201115033D 1   1.00000     0.00000     0
Jmol version 12.1.38_dev  2011-02-16 08:29 EXTRACT: ({0:7})
  8  7  0  0  0  0              1 V2000
  -0.98820  -1.47210  -0.21920 Cl  0  0  0  0  0  0
  -0.62190   0.00000   0.75520 C   0  0  0  0  0  0
   0.85830   0.00000   1.14240 C   0  0  0  0  0  0
   1.87000   0.00000  -0.35000 Cl  0  0  0  0  0  0
  -0.98820   1.47210  -0.21920 Cl  0  0  0  0  0  0
  -1.23350   0.00000   1.65740 H   0  0  0  0  0  0
   1.07980   0.89000   1.73150 H   0  0  0  0  0  0
   1.07980  -0.89000   1.73150 H   0  0  0  0  0  0
  1  2  1  0  0  0
  2  3  1  0  0  0
  3  4  1  0  0  0
  2  5  1  0  0  0
  2  6  1  0  0  0
  3  7  1  0  0  0
  3  8  1  0  0  0
M  END
