http://cactus.nci.nih.gov/chemical/structure/cyclohexane/file?format=sdf&get3d=True
__Jmol-12_12051310113D 1   1.00000     0.00000     0
Jmol version 12.3.28  2012-05-30 15:29 EXTRACT: ({0:26})
 27 27  0  0  0  0              1 V2000
  -0.26717  -1.17853   0.82795 C   0  0  0  0  0  0
  -1.27127  -0.69381  -0.21969 C   0  0  0  0  0  0
  -1.15130   0.82328  -0.37761 C   0  0  0  0  0  0
   0.26717   1.17853  -0.82795 C   0  0  0  0  0  0
   1.27127   0.69381   0.21969 C   0  0  0  0  0  0
   1.15130  -0.82328   0.37761 C   0  0  0  0  0  0
  -0.47678  -0.69614   1.78266 H   0  0  0  0  0  0
  -0.35268  -2.25933   0.94049 H   0  0  0  0  0  0
  -1.06166  -1.17619  -1.17440 H   0  0  0  0  0  0
  -2.66193  -1.04199   0.22169 C   0  0  0  0  0  0
  -1.86659   1.16871  -1.12398 H   0  0  0  0  0  0
  -1.36091   1.30566   0.57710 H   0  0  0  0  0  0
   0.55562   0.51470  -2.14177 C   0  0  0  0  0  0
   0.38484   2.66586  -0.98282 C   0  0  0  0  0  0
   2.28185   0.94682  -0.10106 H   0  0  0  0  0  0
   1.06166   1.17619   1.17440 H   0  0  0  0  0  0
   1.86659  -1.16871   1.12398 H   0  0  0  0  0  0
   1.36091  -1.30566  -0.57710 H   0  0  0  0  0  0
   0.17329   3.15276  -0.01939 H   0  0  0  0  0  0
  -0.33707   3.01439  -1.73606 H   0  0  0  0  0  0
   1.40461   2.92131  -1.30657 H   0  0  0  0  0  0
  -0.16629   0.86319  -2.89503 H   0  0  0  0  0  0
   0.46932  -0.57603  -2.02829 H   0  0  0  0  0  0
   1.57539   0.77006  -2.46558 H   0  0  0  0  0  0
  -2.87358  -0.55517   1.18514 H   0  0  0  0  0  0
  -2.74836  -2.13269   0.33524 H   0  0  0  0  0  0
  -3.38382  -0.69346  -0.53157 H   0  0  0  0  0  0
  1  2  1  0  0  0
  2  3  1  0  0  0
  3  4  1  0  0  0
  4  5  1  0  0  0
  5  6  1  0  0  0
  1  6  1  0  0  0
  1  7  1  0  0  0
  1  8  1  0  0  0
  2  9  1  0  0  0
  2 10  1  0  0  0
  3 11  1  0  0  0
  3 12  1  0  0  0
  4 13  1  0  0  0
  4 14  1  0  0  0
  5 15  1  0  0  0
  5 16  1  0  0  0
  6 17  1  0  0  0
  6 18  1  0  0  0
 19 14  1  0  0  0
 20 14  1  0  0  0
 21 14  1  0  0  0
 22 13  1  0  0  0
 23 13  1  0  0  0
 24 13  1  0  0  0
 25 10  1  0  0  0
 26 10  1  0  0  0
 27 10  1  0  0  0
M  END
