http://cactus.nci.nih.gov/chemical/structure/1,1,1,2-TETRACHLOROETHANE/file?format=sdf&get3d=True
__Jmol-12_10201115023D 1   1.00000     0.00000     0
Jmol version 12.1.38_dev  2011-02-16 08:29 EXTRACT: ({0:7})
  8  7  0  0  0  0              1 V2000
  -0.20030  -1.47210  -0.92250 Cl  0  0  0  0  0  0
  -0.39380   0.00000   0.10030 C   0  0  0  0  0  0
   0.66950   0.00000   1.20050 C   0  0  0  0  0  0
   2.30950   0.00000   0.45130 Cl  0  0  0  0  0  0
  -0.20030   1.47210  -0.92250 Cl  0  0  0  0  0  0
  -2.03370   0.00000   0.84960 Cl  0  0  0  0  0  0
   0.55260   0.89000   1.81880 H   0  0  0  0  0  0
   0.55260  -0.89000   1.81880 H   0  0  0  0  0  0
  1  2  1  0  0  0
  2  3  1  0  0  0
  3  4  1  0  0  0
  2  5  1  0  0  0
  2  6  1  0  0  0
  3  7  1  0  0  0
  3  8  1  0  0  0
M  END
