C2H3F3
APtclcactv11031115113D 0   0.00000     0.00000
 
  8  7  0  0  0  0  0  0  0  0999 V2000
   -0.4368    0.0187    1.3189 F   0  0  0  0  0  0  0  0  0  0  0  0
    0.0295    0.0000    0.0000 C   0  0  0  0  0  0  0  0  0  0  0  0
    1.5595    0.0000    0.0000 C   0  0  0  0  0  0  0  0  0  0  0  0
   -0.4368   -1.1515   -0.6432 F   0  0  0  0  0  0  0  0  0  0  0  0
   -0.4368    1.1328   -0.6756 F   0  0  0  0  0  0  0  0  0  0  0  0
    1.9228   -0.8826    0.5264 H   0  0  0  0  0  0  0  0  0  0  0  0
    1.9229   -0.0146   -1.0275 H   0  0  0  0  0  0  0  0  0  0  0  0
    1.9228    0.8972    0.5012 H   0  0  0  0  0  0  0  0  0  0  0  0
  1  2  1  0  0  0  0
  2  3  1  0  0  0  0
  2  4  1  0  0  0  0
  2  5  1  0  0  0  0
  3  6  1  0  0  0  0
  3  7  1  0  0  0  0
  3  8  1  0  0  0  0
M  END
$$$$
