http://cactus.nci.nih.gov/chemical/structure/1,1-DIMETHYLCYCLOHEXANE/file?format=sdf&get3d=True
__Jmol-12_04271212343D 1   1.00000     0.00000     0
Jmol version 12.1.38_dev  2011-02-16 08:29 EXTRACT: ({0:23})
 24 24  0  0  0  0              1 V2000
  -1.02590   0.00000   1.49940 C   0  0  0  0  0  0
  -0.88990  -0.00000  -0.02460 C   0  0  0  0  0  0
  -0.12620   1.24920  -0.46850 C   0  0  0  0  0  0
   1.26530   1.24920   0.16770 C   0  0  0  0  0  0
   2.02900   0.00000  -0.27620 C   0  0  0  0  0  0
   1.26530  -1.24920   0.16770 C   0  0  0  0  0  0
  -0.12620  -1.24920  -0.46850 C   0  0  0  0  0  0
  -2.28140   0.00000  -0.66070 C   0  0  0  0  0  0
  -1.57000   0.89000   1.81560 H   0  0  0  0  0  0
  -1.57000  -0.89000   1.81560 H   0  0  0  0  0  0
  -0.03460   0.00000   1.95260 H   0  0  0  0  0  0
  -0.02940   1.24920  -1.55420 H   0  0  0  0  0  0
  -0.67030   2.13920  -0.15220 H   0  0  0  0  0  0
   1.80930   2.13920  -0.14860 H   0  0  0  0  0  0
   1.16840   1.24920   1.25340 H   0  0  0  0  0  0
   2.12580   0.00000  -1.36190 H   0  0  0  0  0  0
   3.02030   0.00000   0.17700 H   0  0  0  0  0  0
   1.80930  -2.13920  -0.14860 H   0  0  0  0  0  0
   1.16840  -1.24920   1.25340 H   0  0  0  0  0  0
  -0.67030  -2.13920  -0.15220 H   0  0  0  0  0  0
  -0.02940  -1.24920  -1.55420 H   0  0  0  0  0  0
  -2.82550   0.89000  -0.34450 H   0  0  0  0  0  0
  -2.18460   0.00000  -1.74640 H   0  0  0  0  0  0
  -2.82550  -0.89000  -0.34450 H   0  0  0  0  0  0
  1  2  1  0  0  0
  2  3  1  0  0  0
  3  4  1  0  0  0
  4  5  1  0  0  0
  5  6  1  0  0  0
  6  7  1  0  0  0
  2  7  1  0  0  0
  2  8  1  0  0  0
  1  9  1  0  0  0
  1 10  1  0  0  0
  1 11  1  0  0  0
  3 12  1  0  0  0
  3 13  1  0  0  0
  4 14  1  0  0  0
  4 15  1  0  0  0
  5 16  1  0  0  0
  5 17  1  0  0  0
  6 18  1  0  0  0
  6 19  1  0  0  0
  7 20  1  0  0  0
  7 21  1  0  0  0
  8 22  1  0  0  0
  8 23  1  0  0  0
  8 24  1  0  0  0
M  END
