Ethane, 1,1-difluoro-, ID: C75376
  NIST    04042217093D 1   1.00000     0.00000      
NIST Chemistry WebBook
  8  7  0     0  0              1 V2000
    2.3455    1.6331    0.7989 C   0  0  0  0  0  0           0  0  0
    0.9935    0.9202    0.9377 C   0  0  0  0  0  0           0  0  0
    0.9957    0.0000    1.9357 F   0  0  0  0  0  0           0  0  0
    0.0000    1.7674    1.3093 F   0  0  0  0  0  0           0  0  0
    2.6435    2.1321    1.7295 H   0  0  0  0  0  0           0  0  0
    2.2962    2.3926    0.0101 H   0  0  0  0  0  0           0  0  0
    3.1300    0.9142    0.5356 H   0  0  0  0  0  0           0  0  0
    0.6837    0.4135    0.0000 H   0  0  0  0  0  0           0  0  0
  1  2  1  0     0  0
  1  5  1  0     0  0
  1  6  1  0     0  0
  1  7  1  0     0  0
  2  3  1  0     0  0
  2  4  1  0     0  0
  2  8  1  0     0  0
M  END
