C2Cl2F4
APtclcactv11031115083D 0   0.00000     0.00000
 
  8  7  0  0  0  0  0  0  0  0999 V2000
   -2.1509    0.3597   -0.0000 Cl  0  0  0  0  0  0  0  0  0  0  0  0
   -0.5710   -0.5091    0.0000 C   0  0  0  0  0  0  0  0  0  0  0  0
    0.5710    0.5091    0.0000 C   0  0  0  0  0  0  0  0  0  0  0  0
    2.1509   -0.3597   -0.0000 Cl  0  0  0  0  0  0  0  0  0  0  0  0
    0.4801    1.3117   -1.1423 F   0  0  0  0  0  0  0  0  0  0  0  0
    0.4801    1.3117    1.1423 F   0  0  0  0  0  0  0  0  0  0  0  0
   -0.4801   -1.3117    1.1423 F   0  0  0  0  0  0  0  0  0  0  0  0
   -0.4801   -1.3117   -1.1423 F   0  0  0  0  0  0  0  0  0  0  0  0
  1  2  1  0  0  0  0
  2  3  1  0  0  0  0
  3  4  1  0  0  0  0
  3  5  1  0  0  0  0
  3  6  1  0  0  0  0
  2  7  1  0  0  0  0
  2  8  1  0  0  0  0
M  END
$$$$
