
 OpenBabel11141310203D

 22 21  0  0  0  0  0  0  0  0999 V2000
   -0.0778    0.0715   -0.0065 C   0  0  0  0  0  0  0  0  0  0  0  0
    1.1082    0.6786   -0.1412 C   0  0  0  0  0  0  0  0  0  0  0  0
    2.4148   -0.0627   -0.0957 C   0  0  0  0  0  0  0  0  0  0  0  0
    2.4275   -0.8208   -0.8878 H   0  0  0  0  0  0  0  0  0  0  0  0
    2.5033   -0.5795    0.8675 H   0  0  0  0  0  0  0  0  0  0  0  0
    3.6123    0.8750   -0.2763 C   0  0  0  0  0  0  0  0  0  0  0  0
    3.6058    1.6402    0.5102 H   0  0  0  0  0  0  0  0  0  0  0  0
    3.5304    1.4000   -1.2363 H   0  0  0  0  0  0  0  0  0  0  0  0
    4.9336    0.1037   -0.2273 C   0  0  0  0  0  0  0  0  0  0  0  0
    4.9401   -0.6615   -1.0138 H   0  0  0  0  0  0  0  0  0  0  0  0
    5.0156   -0.4213    0.7328 H   0  0  0  0  0  0  0  0  0  0  0  0
    6.1311    1.0414   -0.4079 C   0  0  0  0  0  0  0  0  0  0  0  0
    6.1185    1.7996    0.3843 H   0  0  0  0  0  0  0  0  0  0  0  0
    6.0427    1.5582   -1.3711 H   0  0  0  0  0  0  0  0  0  0  0  0
    7.4378    0.3001   -0.3624 C   0  0  0  0  0  0  0  0  0  0  0  0
    8.6238    0.9072   -0.4971 C   0  0  0  0  0  0  0  0  0  0  0  0
   -0.1546   -1.0004    0.1442 H   0  0  0  0  0  0  0  0  0  0  0  0
   -1.0018    0.6415   -0.0449 H   0  0  0  0  0  0  0  0  0  0  0  0
    1.1307    1.7557   -0.2902 H   0  0  0  0  0  0  0  0  0  0  0  0
    7.4153   -0.7770   -0.2134 H   0  0  0  0  0  0  0  0  0  0  0  0
    8.7005    1.9791   -0.6478 H   0  0  0  0  0  0  0  0  0  0  0  0
    9.5477    0.3372   -0.4586 H   0  0  0  0  0  0  0  0  0  0  0  0
  1  2  2  0  0  0  0
  3  2  1  0  0  0  0
  4  3  1  0  0  0  0
  5  3  1  0  0  0  0
  6  3  1  0  0  0  0
  7  6  1  0  0  0  0
  8  6  1  0  0  0  0
  9  6  1  0  0  0  0
 10  9  1  0  0  0  0
 11  9  1  0  0  0  0
 12  9  1  0  0  0  0
 13 12  1  0  0  0  0
 14 12  1  0  0  0  0
 15 12  1  0  0  0  0
 16 15  2  0  0  0  0
 17  1  1  0  0  0  0
 18  1  1  0  0  0  0
 19  2  1  0  0  0  0
 20 15  1  0  0  0  0
 21 16  1  0  0  0  0
 22 16  1  0  0  0  0
M  END
