http://cactus.nci.nih.gov/chemical/structure/1-decene/file?format=sdf&get3d=True
__Jmol-12_06131109053D 1   1.00000     0.00000     0
Jmol version 12.1.38_dev  2011-02-16 08:29 EXTRACT: ({0:29})
 30 29  0  0  0  0              1 V2000
   5.40430  -0.18790  -0.61100 C   0  0  0  0  0  0
   4.45810  -0.31280   0.28630 C   0  0  0  0  0  0
   3.22210   0.54520   0.20240 C   0  0  0  0  0  0
   1.98060  -0.34900   0.18720 C   0  0  0  0  0  0
   0.72570   0.52210   0.10200 C   0  0  0  0  0  0
  -0.51570  -0.37200   0.08680 C   0  0  0  0  0  0
  -1.77060   0.49900   0.00160 C   0  0  0  0  0  0
  -3.01210  -0.39510  -0.01360 C   0  0  0  0  0  0
  -4.26700   0.47600  -0.09880 C   0  0  0  0  0  0
  -5.50840  -0.41820  -0.11400 C   0  0  0  0  0  0
   6.29020  -0.80280  -0.55090 H   0  0  0  0  0  0
   5.29660   0.52680  -1.41350 H   0  0  0  0  0  0
   4.56390  -1.03060   1.08630 H   0  0  0  0  0  0
   3.18120   1.20900   1.06600 H   0  0  0  0  0  0
   3.25330   1.13900  -0.71110 H   0  0  0  0  0  0
   2.02150  -1.01270  -0.67640 H   0  0  0  0  0  0
   1.94940  -0.94280   1.10070 H   0  0  0  0  0  0
   0.68480   1.18590   0.96560 H   0  0  0  0  0  0
   0.75700   1.11590  -0.81150 H   0  0  0  0  0  0
  -0.47490  -1.03580  -0.77680 H   0  0  0  0  0  0
  -0.54700  -0.96590   1.00030 H   0  0  0  0  0  0
  -1.81150   1.16280   0.86520 H   0  0  0  0  0  0
  -1.73940   1.09290  -0.91190 H   0  0  0  0  0  0
  -2.97120  -1.05890  -0.87720 H   0  0  0  0  0  0
  -3.04330  -0.98890   0.89990 H   0  0  0  0  0  0
  -4.30790   1.13970   0.76480 H   0  0  0  0  0  0
  -4.23580   1.06980  -1.01230 H   0  0  0  0  0  0
  -6.40250   0.20240  -0.17470 H   0  0  0  0  0  0
  -5.46760  -1.08200  -0.97760 H   0  0  0  0  0  0
  -5.53970  -1.01200   0.79960 H   0  0  0  0  0  0
  1  2  2  0  0  0
  2  3  1  0  0  0
  3  4  1  0  0  0
  4  5  1  0  0  0
  5  6  1  0  0  0
  6  7  1  0  0  0
  7  8  1  0  0  0
  8  9  1  0  0  0
  9 10  1  0  0  0
  1 11  1  0  0  0
  1 12  1  0  0  0
  2 13  1  0  0  0
  3 14  1  0  0  0
  3 15  1  0  0  0
  4 16  1  0  0  0
  4 17  1  0  0  0
  5 18  1  0  0  0
  5 19  1  0  0  0
  6 20  1  0  0  0
  6 21  1  0  0  0
  7 22  1  0  0  0
  7 23  1  0  0  0
  8 24  1  0  0  0
  8 25  1  0  0  0
  9 26  1  0  0  0
  9 27  1  0  0  0
 10 28  1  0  0  0
 10 29  1  0  0  0
 10 30  1  0  0  0
M  END
