http://cactus.nci.nih.gov/chemical/structure/1-HEXANAL/file?format=sdf&get3d=True
__Jmol-12_10201114543D 1   1.00000     0.00000     0
Jmol version 12.1.38_dev  2011-02-16 08:29 EXTRACT: ({0:18})
 19 18  0  0  0  0              1 V2000
   2.55130   0.23210  -0.30960 C   0  0  0  0  0  0
   1.26790  -0.55560  -0.25100 C   0  0  0  0  0  0
   0.08510   0.40570  -0.11670 C   0  0  0  0  0  0
  -1.21780  -0.39410  -0.05720 C   0  0  0  0  0  0
  -2.40060   0.56720   0.07710 C   0  0  0  0  0  0
  -3.70350  -0.23260   0.13660 C   0  0  0  0  0  0
   3.44060  -0.00350   0.47270 O   0  0  0  0  0  0
   2.67740   1.00440  -1.05400 H   0  0  0  0  0  0
   1.15870  -1.14060  -1.16420 H   0  0  0  0  0  0
   1.29140  -1.22510   0.60880 H   0  0  0  0  0  0
   0.19440   0.99070   0.79650 H   0  0  0  0  0  0
   0.06160   1.07520  -0.97650 H   0  0  0  0  0  0
  -1.32700  -0.97910  -0.97040 H   0  0  0  0  0  0
  -1.19430  -1.06360   0.80260 H   0  0  0  0  0  0
  -2.29140   1.15230   0.99030 H   0  0  0  0  0  0
  -2.42410   1.23670  -0.78270 H   0  0  0  0  0  0
  -4.54610   0.45230   0.23220 H   0  0  0  0  0  0
  -3.81270  -0.81760  -0.77660 H   0  0  0  0  0  0
  -3.68000  -0.90210   0.99640 H   0  0  0  0  0  0
  1  2  1  0  0  0
  2  3  1  0  0  0
  3  4  1  0  0  0
  4  5  1  0  0  0
  5  6  1  0  0  0
  1  7  2  0  0  0
  1  8  1  0  0  0
  2  9  1  0  0  0
  2 10  1  0  0  0
  3 11  1  0  0  0
  3 12  1  0  0  0
  4 13  1  0  0  0
  4 14  1  0  0  0
  5 15  1  0  0  0
  5 16  1  0  0  0
  6 17  1  0  0  0
  6 18  1  0  0  0
  6 19  1  0  0  0
M  END
