
 OpenBabel11141310373D

 27 26  0  0  0  0  0  0  0  0999 V2000
    4.7026    0.6230   -1.2042 C   0  0  0  0  0  0  0  0  0  0  0  0
    3.8581    0.5701   -0.1667 C   0  0  0  0  0  0  0  0  0  0  0  0
    2.4483    1.0875   -0.2024 C   0  0  0  0  0  0  0  0  0  0  0  0
    1.4381   -0.0350    0.0432 C   0  0  0  0  0  0  0  0  0  0  0  0
    0.0029    0.4947    0.0159 C   0  0  0  0  0  0  0  0  0  0  0  0
   -1.0088   -0.6251    0.2657 C   0  0  0  0  0  0  0  0  0  0  0  0
   -2.4435   -0.0957    0.2341 C   0  0  0  0  0  0  0  0  0  0  0  0
   -3.4545   -1.2138    0.4869 C   0  0  0  0  0  0  0  0  0  0  0  0
   -4.8821   -0.6920    0.4534 C   0  0  0  0  0  0  0  0  0  0  0  0
    5.7139    0.2363   -1.1167 H   0  0  0  0  0  0  0  0  0  0  0  0
    4.4099    1.0483   -2.1586 H   0  0  0  0  0  0  0  0  0  0  0  0
    4.2007    0.1381    0.7712 H   0  0  0  0  0  0  0  0  0  0  0  0
    2.3426    1.8582    0.5706 H   0  0  0  0  0  0  0  0  0  0  0  0
    2.2376    1.5701   -1.1642 H   0  0  0  0  0  0  0  0  0  0  0  0
    1.5556   -0.8132   -0.7219 H   0  0  0  0  0  0  0  0  0  0  0  0
    1.6354   -0.5074    1.0137 H   0  0  0  0  0  0  0  0  0  0  0  0
   -0.1156    1.2736    0.7791 H   0  0  0  0  0  0  0  0  0  0  0  0
   -0.1980    0.9610   -0.9562 H   0  0  0  0  0  0  0  0  0  0  0  0
   -0.8884   -1.4056   -0.4953 H   0  0  0  0  0  0  0  0  0  0  0  0
   -0.8099   -1.0892    1.2394 H   0  0  0  0  0  0  0  0  0  0  0  0
   -2.5636    0.6868    0.9930 H   0  0  0  0  0  0  0  0  0  0  0  0
   -2.6430    0.3664   -0.7407 H   0  0  0  0  0  0  0  0  0  0  0  0
   -3.3403   -1.9979   -0.2703 H   0  0  0  0  0  0  0  0  0  0  0  0
   -3.2632   -1.6749    1.4631 H   0  0  0  0  0  0  0  0  0  0  0  0
   -5.1165   -0.2537   -0.5221 H   0  0  0  0  0  0  0  0  0  0  0  0
   -5.5882   -1.5077    0.6376 H   0  0  0  0  0  0  0  0  0  0  0  0
   -5.0386    0.0727    1.2206 H   0  0  0  0  0  0  0  0  0  0  0  0
  1  2  2  0  0  0  0
  1 10  1  0  0  0  0
  1 11  1  0  0  0  0
  2  3  1  0  0  0  0
  2 12  1  0  0  0  0
  3  4  1  0  0  0  0
  3 13  1  0  0  0  0
  3 14  1  0  0  0  0
  4  5  1  0  0  0  0
  4 15  1  0  0  0  0
  4 16  1  0  0  0  0
  5  6  1  0  0  0  0
  5 17  1  0  0  0  0
  5 18  1  0  0  0  0
  6  7  1  0  0  0  0
  6 19  1  0  0  0  0
  6 20  1  0  0  0  0
  7  8  1  0  0  0  0
  7 21  1  0  0  0  0
  7 22  1  0  0  0  0
  8  9  1  0  0  0  0
  8 23  1  0  0  0  0
  8 24  1  0  0  0  0
  9 25  1  0  0  0  0
  9 26  1  0  0  0  0
  9 27  1  0  0  0  0
M  END
