http://cactus.nci.nih.gov/chemical/structure/2,2,2-TRIFLUOROETHANOL/file?format=sdf&get3d=True
__Jmol-12_10201115293D 1   1.00000     0.00000     0
Jmol version 12.1.38_dev  2011-02-16 08:29 EXTRACT: ({0:8})
  9  8  0  0  0  0              1 V2000
  -0.41170  -0.78870   1.14230 F   0  0  0  0  0  0
  -0.37690   0.01820   0.00000 C   0  0  0  0  0  0
   0.90930   0.84690   0.00000 C   0  0  0  0  0  0
   2.03940  -0.02760   0.00000 O   0  0  0  0  0  0
  -0.41170  -0.78870  -1.14230 F   0  0  0  0  0  0
  -1.48330   0.87440   0.00000 F   0  0  0  0  0  0
   0.93640   1.47560  -0.89000 H   0  0  0  0  0  0
   0.93640   1.47570   0.89000 H   0  0  0  0  0  0
   2.89110   0.43030   0.00000 H   0  0  0  0  0  0
  1  2  1  0  0  0
  2  3  1  0  0  0
  3  4  1  0  0  0
  2  5  1  0  0  0
  2  6  1  0  0  0
  3  7  1  0  0  0
  3  8  1  0  0  0
  4  9  1  0  0  0
M  END
