http://cactus.nci.nih.gov/chemical/structure/2,3-DIMETHYLHEPTANE/file?format=sdf&get3d=True
__Jmol-12_03301209583D 1   1.00000     0.00000     0
Jmol version 12.1.38_dev  2011-02-16 08:29 EXTRACT: ({0:28})
 29 28  0  0  0  0              1 V2000
   2.14350   1.75070   0.13250 C   0  0  0  0  0  0
   2.10520   0.28440  -0.30270 C   0  0  0  0  0  0
   3.31800  -0.45010   0.27230 C   0  0  0  0  0  0
   0.82150  -0.36780   0.21470 C   0  0  0  0  0  0
  -0.39120   0.36670  -0.36020 C   0  0  0  0  0  0
  -1.67130  -0.20420   0.25330 C   0  0  0  0  0  0
  -2.88410   0.53030  -0.32170 C   0  0  0  0  0  0
  -4.16410  -0.04070   0.29180 C   0  0  0  0  0  0
   0.78320  -1.83410  -0.22040 C   0  0  0  0  0  0
   3.05810   2.21530  -0.23610 H   0  0  0  0  0  0
   1.27950   2.27400  -0.27710 H   0  0  0  0  0  0
   2.12030   1.80750   1.22080 H   0  0  0  0  0  0
   2.12840   0.22770  -1.39100 H   0  0  0  0  0  0
   3.29480  -0.39330   1.36060 H   0  0  0  0  0  0
   3.29070  -1.49470  -0.03780 H   0  0  0  0  0  0
   4.23250   0.01450  -0.09630 H   0  0  0  0  0  0
   0.79830  -0.31100   1.30300 H   0  0  0  0  0  0
  -0.31800   1.42860  -0.12520 H   0  0  0  0  0  0
  -0.41660   0.23490  -1.44190 H   0  0  0  0  0  0
  -1.74460  -1.26610   0.01820 H   0  0  0  0  0  0
  -1.64590  -0.07240   1.33500 H   0  0  0  0  0  0
  -2.81080   1.59210  -0.08670 H   0  0  0  0  0  0
  -2.90940   0.39850  -1.40340 H   0  0  0  0  0  0
  -4.23740  -1.10260   0.05680 H   0  0  0  0  0  0
  -4.13880   0.09110   1.37350 H   0  0  0  0  0  0
  -5.02810   0.48250  -0.11780 H   0  0  0  0  0  0
   1.64720  -2.35730   0.18920 H   0  0  0  0  0  0
  -0.13130  -2.29870   0.14820 H   0  0  0  0  0  0
   0.80640  -1.89080  -1.30870 H   0  0  0  0  0  0
  1  2  1  0  0  0
  2  3  1  0  0  0
  2  4  1  0  0  0
  4  5  1  0  0  0
  5  6  1  0  0  0
  6  7  1  0  0  0
  7  8  1  0  0  0
  4  9  1  0  0  0
  1 10  1  0  0  0
  1 11  1  0  0  0
  1 12  1  0  0  0
  2 13  1  0  0  0
  3 14  1  0  0  0
  3 15  1  0  0  0
  3 16  1  0  0  0
  4 17  1  0  0  0
  5 18  1  0  0  0
  5 19  1  0  0  0
  6 20  1  0  0  0
  6 21  1  0  0  0
  7 22  1  0  0  0
  7 23  1  0  0  0
  8 24  1  0  0  0
  8 25  1  0  0  0
  8 26  1  0  0  0
  9 27  1  0  0  0
  9 28  1  0  0  0
  9 29  1  0  0  0
M  END
