http://cactus.nci.nih.gov/chemical/structure/2,4-DIMETHYL-3-PENTANOL/file?format=sdf&get3d=True
__Jmol-12_10201115323D 1   1.00000     0.00000     0
Jmol version 12.1.38_dev  2011-02-16 08:29 EXTRACT: ({0:23})
 24 23  0  0  0  0              1 V2000
  -1.55250   1.60420  -0.33080 C   0  0  0  0  0  0
  -1.27300   0.21620   0.24910 C   0  0  0  0  0  0
  -2.47070  -0.69810  -0.01640 C   0  0  0  0  0  0
  -0.02570  -0.37180  -0.41380 C   0  0  0  0  0  0
   1.17200   0.54250  -0.14830 C   0  0  0  0  0  0
   1.47930   0.55810   1.35050 C   0  0  0  0  0  0
   2.39040   0.02200  -0.91340 C   0  0  0  0  0  0
   0.23530  -1.66820   0.12790 O   0  0  0  0  0  0
  -0.69930   2.25550  -0.14170 H   0  0  0  0  0  0
  -1.71630   1.52270  -1.40530 H   0  0  0  0  0  0
  -2.44110   2.02300   0.14150 H   0  0  0  0  0  0
  -1.10920   0.29760   1.32370 H   0  0  0  0  0  0
  -2.63450  -0.77960  -1.09090 H   0  0  0  0  0  0
  -2.27160  -1.68690   0.39680 H   0  0  0  0  0  0
  -3.35930  -0.27920   0.45590 H   0  0  0  0  0  0
  -0.18950  -0.45320  -1.48830 H   0  0  0  0  0  0
   0.93820   1.55350  -0.48180 H   0  0  0  0  0  0
   0.61130   0.92890   1.89550 H   0  0  0  0  0  0
   1.71310  -0.45300   1.68400 H   0  0  0  0  0  0
   2.33260   1.20950   1.53960 H   0  0  0  0  0  0
   2.17140   0.01090  -1.98110 H   0  0  0  0  0  0
   3.24370   0.67340  -0.72420 H   0  0  0  0  0  0
   2.62420  -0.98910  -0.57990 H   0  0  0  0  0  0
   0.39090  -1.67160   1.08230 H   0  0  0  0  0  0
  1  2  1  0  0  0
  2  3  1  0  0  0
  2  4  1  0  0  0
  4  5  1  0  0  0
  5  6  1  0  0  0
  5  7  1  0  0  0
  4  8  1  0  0  0
  1  9  1  0  0  0
  1 10  1  0  0  0
  1 11  1  0  0  0
  2 12  1  0  0  0
  3 13  1  0  0  0
  3 14  1  0  0  0
  3 15  1  0  0  0
  4 16  1  0  0  0
  5 17  1  0  0  0
  6 18  1  0  0  0
  6 19  1  0  0  0
  6 20  1  0  0  0
  7 21  1  0  0  0
  7 22  1  0  0  0
  7 23  1  0  0  0
  8 24  1  0  0  0
M  END
