http://cactus.nci.nih.gov/chemical/structure/2,4-DIMETHYL-2-PENTANOL/file?format=sdf&get3d=True
__Jmol-12_10201115313D 1   1.00000     0.00000     0
Jmol version 12.1.38_dev  2011-02-16 08:29 EXTRACT: ({0:23})
 24 23  0  0  0  0              1 V2000
   2.27150  -0.79600   0.68710 C   0  0  0  0  0  0
   1.08670  -0.09660   0.01770 C   0  0  0  0  0  0
   1.19180  -0.25580  -1.50040 C   0  0  0  0  0  0
  -0.21950  -0.72500   0.50720 C   0  0  0  0  0  0
  -1.39530  -0.12600  -0.26710 C   0  0  0  0  0  0
  -2.68200  -0.86390   0.10810 C   0  0  0  0  0  0
  -1.53600   1.35620   0.08560 C   0  0  0  0  0  0
   1.10210   1.29240   0.35310 O   0  0  0  0  0  0
   3.20210  -0.34830   0.33830 H   0  0  0  0  0  0
   2.19660  -0.68250   1.76860 H   0  0  0  0  0  0
   2.25970  -1.85550   0.43120 H   0  0  0  0  0  0
   1.06880  -1.30610  -1.76490 H   0  0  0  0  0  0
   0.41210   0.33400  -1.98240 H   0  0  0  0  0  0
   2.16930   0.09120  -1.83530 H   0  0  0  0  0  0
  -0.18800  -1.80230   0.34390 H   0  0  0  0  0  0
  -0.34400  -0.52230   1.57100 H   0  0  0  0  0  0
  -1.21600  -0.22940  -1.33720 H   0  0  0  0  0  0
  -3.52150  -0.42940  -0.43460 H   0  0  0  0  0  0
  -2.58620  -1.91760  -0.15390 H   0  0  0  0  0  0
  -2.85500  -0.77040   1.18020 H   0  0  0  0  0  0
  -0.68580   1.90750  -0.31590 H   0  0  0  0  0  0
  -2.45820   1.74620  -0.34530 H   0  0  0  0  0  0
  -1.56440   1.47070   1.16920 H   0  0  0  0  0  0
   1.90290   1.75600   0.07230 H   0  0  0  0  0  0
  1  2  1  0  0  0
  2  3  1  0  0  0
  2  4  1  0  0  0
  4  5  1  0  0  0
  5  6  1  0  0  0
  5  7  1  0  0  0
  2  8  1  0  0  0
  1  9  1  0  0  0
  1 10  1  0  0  0
  1 11  1  0  0  0
  3 12  1  0  0  0
  3 13  1  0  0  0
  3 14  1  0  0  0
  4 15  1  0  0  0
  4 16  1  0  0  0
  5 17  1  0  0  0
  6 18  1  0  0  0
  6 19  1  0  0  0
  6 20  1  0  0  0
  7 21  1  0  0  0
  7 22  1  0  0  0
  7 23  1  0  0  0
  8 24  1  0  0  0
M  END
