
 OpenBabel11141309333D

 32 31  0  0  0  0  0  0  0  0999 V2000
   -0.1258   -0.0200    0.0196 C   0  0  0  0  0  0  0  0  0  0  0  0
    1.0424    0.8716    0.4476 C   0  0  0  0  0  0  0  0  0  0  0  0
   -0.0005   -1.0378    0.4039 H   0  0  0  0  0  0  0  0  0  0  0  0
   -1.0740    0.3671    0.4076 H   0  0  0  0  0  0  0  0  0  0  0  0
   -0.2037   -0.0764   -1.0717 H   0  0  0  0  0  0  0  0  0  0  0  0
    2.3676    0.2763   -0.0629 C   0  0  0  0  0  0  0  0  0  0  0  0
    1.0651    0.8907    1.5450 H   0  0  0  0  0  0  0  0  0  0  0  0
    0.8114    2.2987   -0.0507 C   0  0  0  0  0  0  0  0  0  0  0  0
    2.3711    0.2659   -1.1609 H   0  0  0  0  0  0  0  0  0  0  0  0
    2.4319   -0.7704    0.2605 H   0  0  0  0  0  0  0  0  0  0  0  0
    3.6066    1.0226    0.4410 C   0  0  0  0  0  0  0  0  0  0  0  0
    3.5765    1.0882    1.5358 H   0  0  0  0  0  0  0  0  0  0  0  0
    3.6131    2.0462    0.0521 H   0  0  0  0  0  0  0  0  0  0  0  0
    4.8942    0.3154    0.0071 C   0  0  0  0  0  0  0  0  0  0  0  0
    4.9244    0.2498   -1.0876 H   0  0  0  0  0  0  0  0  0  0  0  0
    4.8877   -0.7082    0.3961 H   0  0  0  0  0  0  0  0  0  0  0  0
    6.1333    1.0617    0.5111 C   0  0  0  0  0  0  0  0  0  0  0  0
    6.1297    1.0720    1.6091 H   0  0  0  0  0  0  0  0  0  0  0  0
    6.0689    2.1083    0.1877 H   0  0  0  0  0  0  0  0  0  0  0  0
    7.4584    0.4664    0.0005 C   0  0  0  0  0  0  0  0  0  0  0  0
    7.4357    0.4473   -1.0968 H   0  0  0  0  0  0  0  0  0  0  0  0
    7.6895   -0.9608    0.4989 C   0  0  0  0  0  0  0  0  0  0  0  0
    8.6267    1.3580    0.4286 C   0  0  0  0  0  0  0  0  0  0  0  0
    8.7045    1.4143    1.5199 H   0  0  0  0  0  0  0  0  0  0  0  0
    8.5013    2.3757    0.0443 H   0  0  0  0  0  0  0  0  0  0  0  0
    9.5748    0.9709    0.0406 H   0  0  0  0  0  0  0  0  0  0  0  0
   -0.1684    2.6684    0.2706 H   0  0  0  0  0  0  0  0  0  0  0  0
    0.8485    2.3481   -1.1444 H   0  0  0  0  0  0  0  0  0  0  0  0
    1.5624    2.9871    0.3480 H   0  0  0  0  0  0  0  0  0  0  0  0
    6.9384   -1.6491    0.1001 H   0  0  0  0  0  0  0  0  0  0  0  0
    7.6524   -1.0102    1.5925 H   0  0  0  0  0  0  0  0  0  0  0  0
    8.6692   -1.3304    0.1775 H   0  0  0  0  0  0  0  0  0  0  0  0
  1  2  1  0  0  0  0
  1  3  1  0  0  0  0
  1  4  1  0  0  0  0
  1  5  1  0  0  0  0
  6  2  1  0  0  0  0
  7  2  1  0  0  0  0
  8  2  1  0  0  0  0
  9  6  1  0  0  0  0
 10  6  1  0  0  0  0
 11  6  1  0  0  0  0
 12 11  1  0  0  0  0
 13 11  1  0  0  0  0
 14 11  1  0  0  0  0
 15 14  1  0  0  0  0
 16 14  1  0  0  0  0
 17 14  1  0  0  0  0
 18 17  1  0  0  0  0
 19 17  1  0  0  0  0
 20 17  1  0  0  0  0
 21 20  1  0  0  0  0
 22 20  1  0  0  0  0
 23 20  1  0  0  0  0
 24 23  1  0  0  0  0
 25 23  1  0  0  0  0
 26 23  1  0  0  0  0
 27  8  1  0  0  0  0
 28  8  1  0  0  0  0
 29  8  1  0  0  0  0
 30 22  1  0  0  0  0
 31 22  1  0  0  0  0
 32 22  1  0  0  0  0
M  END
