
 OpenBabel12051310393D

 39 39  0  0  1  0  0  0  0  0999 V2000
    4.1139   -0.7570   -1.7347 C   0  0  0  0  0  0  0  0  0  0  0  0
    2.6565   -1.1495   -1.5540 C   0  0  0  0  0  0  0  0  0  0  0  0
    1.8639   -0.0595   -0.8308 C   0  0  0  0  0  0  0  0  0  0  0  0
    0.3987   -0.4704   -0.6396 C   0  0  0  0  0  0  0  0  0  0  0  0
   -0.2856    0.4021    0.4199 C   0  0  0  0  0  0  0  0  0  0  0  0
   -1.7875    0.0826    0.6965 C   0  0  2  0  0  0  0  0  0  0  0  0
   -2.4376    1.3959    1.2240 C   0  0  0  0  0  0  0  0  0  0  0  0
   -3.9557    1.4783    1.1343 C   0  0  0  0  0  0  0  0  0  0  0  0
    4.5861   -0.5424   -0.7706 H   0  0  0  0  0  0  0  0  0  0  0  0
    4.6691   -1.5727   -2.2086 H   0  0  0  0  0  0  0  0  0  0  0  0
    4.2048    0.1307   -2.3682 H   0  0  0  0  0  0  0  0  0  0  0  0
    2.2087   -1.3556   -2.5324 H   0  0  0  0  0  0  0  0  0  0  0  0
    2.6127   -2.0799   -0.9744 H   0  0  0  0  0  0  0  0  0  0  0  0
    2.3289    0.1300    0.1441 H   0  0  0  0  0  0  0  0  0  0  0  0
    1.9092    0.8784   -1.3978 H   0  0  0  0  0  0  0  0  0  0  0  0
   -0.1329   -0.3852   -1.5945 H   0  0  0  0  0  0  0  0  0  0  0  0
    0.3740   -1.5221   -0.3608 H   0  0  0  0  0  0  0  0  0  0  0  0
    0.2726    0.3534    1.3629 H   0  0  0  0  0  0  0  0  0  0  0  0
   -0.1918    1.4374    0.0658 H   0  0  0  0  0  0  0  0  0  0  0  0
   -2.1172    1.5885    2.2549 H   0  0  0  0  0  0  0  0  0  0  0  0
   -2.0638    2.2370    0.6256 H   0  0  0  0  0  0  0  0  0  0  0  0
   -4.3305    1.0455    0.2027 H   0  0  0  0  0  0  0  0  0  0  0  0
   -4.4453    0.9890    1.9775 H   0  0  0  0  0  0  0  0  0  0  0  0
   -4.2707    2.5273    1.1682 H   0  0  0  0  0  0  0  0  0  0  0  0
   -1.9613   -1.1121    1.6872 C   0  0  0  0  0  0  0  0  0  0  0  0
   -2.2642   -0.1702   -0.2593 H   0  0  0  0  0  0  0  0  0  0  0  0
   -1.4679   -0.8574    2.6351 H   0  0  0  0  0  0  0  0  0  0  0  0
   -1.3922   -2.4452    1.1912 C   0  0  0  0  0  0  0  0  0  0  0  0
   -3.4122   -1.5005    1.9905 C   0  0  0  0  0  0  0  0  0  0  0  0
   -4.0255   -1.4600    1.0833 H   0  0  0  0  0  0  0  0  0  0  0  0
   -3.8620   -0.8526    2.7469 H   0  0  0  0  0  0  0  0  0  0  0  0
   -3.3685   -2.9316    2.5146 C   0  0  0  0  0  0  0  0  0  0  0  0
   -0.3066   -2.5020    1.3096 H   0  0  0  0  0  0  0  0  0  0  0  0
   -1.6453   -2.6077    0.1369 H   0  0  0  0  0  0  0  0  0  0  0  0
   -2.0495   -3.5195    2.0443 C   0  0  0  0  0  0  0  0  0  0  0  0
   -4.2238   -3.5093    2.1484 H   0  0  0  0  0  0  0  0  0  0  0  0
   -3.4132   -2.9438    3.6094 H   0  0  0  0  0  0  0  0  0  0  0  0
   -1.4181   -3.7582    2.9077 H   0  0  0  0  0  0  0  0  0  0  0  0
   -2.1915   -4.4463    1.4785 H   0  0  0  0  0  0  0  0  0  0  0  0
  1  2  1  0  0  0  0
  1  9  1  0  0  0  0
  1 10  1  0  0  0  0
  1 11  1  0  0  0  0
  2  3  1  0  0  0  0
  2 12  1  0  0  0  0
  2 13  1  0  0  0  0
  3  4  1  0  0  0  0
  3 14  1  0  0  0  0
  3 15  1  0  0  0  0
  4  5  1  0  0  0  0
  4 16  1  0  0  0  0
  4 17  1  0  0  0  0
  5  6  1  0  0  0  0
  5 18  1  0  0  0  0
  5 19  1  0  0  0  0
  6  7  1  0  0  0  0
  6 26  1  6  0  0  0
  7  8  1  0  0  0  0
  7 20  1  0  0  0  0
  7 21  1  0  0  0  0
  8 22  1  0  0  0  0
  8 23  1  0  0  0  0
  8 24  1  0  0  0  0
 25  6  1  0  0  0  0
 27 25  1  0  0  0  0
 28 25  1  0  0  0  0
 29 25  1  0  0  0  0
 30 29  1  0  0  0  0
 31 29  1  0  0  0  0
 32 29  1  0  0  0  0
 32 35  1  0  0  0  0
 33 28  1  0  0  0  0
 34 28  1  0  0  0  0
 35 28  1  0  0  0  0
 36 32  1  0  0  0  0
 37 32  1  0  0  0  0
 38 35  1  0  0  0  0
 39 35  1  0  0  0  0
M  END
