http://cactus.nci.nih.gov/chemical/structure/2-METHYL-2-PENTANOL/file?format=sdf&get3d=True
__Jmol-12_10201115123D 1   1.00000     0.00000     0
Jmol version 12.1.38_dev  2011-02-16 08:29 EXTRACT: ({0:20})
 21 20  0  0  0  0              1 V2000
   1.94940  -1.11230  -0.24460 C   0  0  0  0  0  0
   0.88080  -0.04260  -0.01050 C   0  0  0  0  0  0
   0.98830   1.03150  -1.09480 C   0  0  0  0  0  0
  -0.50600  -0.68650  -0.06610 C   0  0  0  0  0  0
  -1.57750   0.40020   0.04330 C   0  0  0  0  0  0
  -2.96430  -0.24370  -0.01230 C   0  0  0  0  0  0
   1.07770   0.55460   1.27270 O   0  0  0  0  0  0
   2.93740  -0.65360  -0.20500 H   0  0  0  0  0  0
   1.87290  -1.87750   0.52790 H   0  0  0  0  0  0
   1.79930  -1.56780  -1.22340 H   0  0  0  0  0  0
   0.83810   0.57590  -2.07360 H   0  0  0  0  0  0
   0.22700   1.79350  -0.92810 H   0  0  0  0  0  0
   1.97630   1.49020  -1.05520 H   0  0  0  0  0  0
  -0.62240  -1.21770  -1.01070 H   0  0  0  0  0  0
  -0.61430  -1.38810   0.76100 H   0  0  0  0  0  0
  -1.46110   0.93140   0.98790 H   0  0  0  0  0  0
  -1.46930   1.10180  -0.78380 H   0  0  0  0  0  0
  -3.08070  -0.77490  -0.95690 H   0  0  0  0  0  0
  -3.07260  -0.94530   0.81490 H   0  0  0  0  0  0
  -3.72770   0.53050   0.06570 H   0  0  0  0  0  0
   1.93810   0.98270   1.37950 H   0  0  0  0  0  0
  1  2  1  0  0  0
  2  3  1  0  0  0
  2  4  1  0  0  0
  4  5  1  0  0  0
  5  6  1  0  0  0
  2  7  1  0  0  0
  1  8  1  0  0  0
  1  9  1  0  0  0
  1 10  1  0  0  0
  3 11  1  0  0  0
  3 12  1  0  0  0
  3 13  1  0  0  0
  4 14  1  0  0  0
  4 15  1  0  0  0
  5 16  1  0  0  0
  5 17  1  0  0  0
  6 18  1  0  0  0
  6 19  1  0  0  0
  6 20  1  0  0  0
  7 21  1  0  0  0
M  END
