http://cactus.nci.nih.gov/chemical/structure/2-METHYL-3-PENTANOL/file?format=sdf&get3d=True
__Jmol-12_10201115143D 1   1.00000     0.00000     0
Jmol version 12.1.38_dev  2011-02-16 08:29 EXTRACT: ({0:20})
 21 20  0  0  0  0              1 V2000
  -1.43290   1.61220  -0.05440 C   0  0  0  0  0  0
  -1.13650   0.16100   0.32920 C   0  0  0  0  0  0
  -2.21810  -0.75130  -0.25270 C   0  0  0  0  0  0
   0.22850  -0.24560  -0.22950 C   0  0  0  0  0  0
   1.31010   0.66680   0.35240 C   0  0  0  0  0  0
   2.65580   0.34260  -0.29940 C   0  0  0  0  0  0
   0.50530  -1.60100   0.12880 O   0  0  0  0  0  0
  -0.66230   2.26220   0.36020 H   0  0  0  0  0  0
  -1.44200   1.70640  -1.14020 H   0  0  0  0  0  0
  -2.40540   1.90190   0.34370 H   0  0  0  0  0  0
  -1.12740   0.06690   1.41510 H   0  0  0  0  0  0
  -2.22730  -0.65720  -1.33860 H   0  0  0  0  0  0
  -2.00700  -1.78520   0.02060 H   0  0  0  0  0  0
  -3.19060  -0.46170   0.14540 H   0  0  0  0  0  0
   0.21940  -0.15140  -1.31540 H   0  0  0  0  0  0
   1.05230   1.70740   0.15540 H   0  0  0  0  0  0
   1.37980   0.50720   1.42840 H   0  0  0  0  0  0
   2.91360  -0.69800  -0.10240 H   0  0  0  0  0  0
   2.58610   0.50220  -1.37540 H   0  0  0  0  0  0
   3.42630   0.99260   0.11510 H   0  0  0  0  0  0
   0.52890  -1.75870   1.08250 H   0  0  0  0  0  0
  1  2  1  0  0  0
  2  3  1  0  0  0
  2  4  1  0  0  0
  4  5  1  0  0  0
  5  6  1  0  0  0
  4  7  1  0  0  0
  1  8  1  0  0  0
  1  9  1  0  0  0
  1 10  1  0  0  0
  2 11  1  0  0  0
  3 12  1  0  0  0
  3 13  1  0  0  0
  3 14  1  0  0  0
  4 15  1  0  0  0
  5 16  1  0  0  0
  5 17  1  0  0  0
  6 18  1  0  0  0
  6 19  1  0  0  0
  6 20  1  0  0  0
  7 21  1  0  0  0
M  END
