http://cactus.nci.nih.gov/chemical/structure/2-METHYLOCTANE/file?format=sdf&get3d=True
__Jmol-12_03301209593D 1   1.00000     0.00000     0
Jmol version 12.1.38_dev  2011-02-16 08:29 EXTRACT: ({0:28})
 29 28  0  0  0  0              1 V2000
   2.90680   1.43310   0.33840 C   0  0  0  0  0  0
   2.76980   0.07780  -0.35820 C   0  0  0  0  0  0
   3.99410  -0.78390  -0.04250 C   0  0  0  0  0  0
   1.50730  -0.62720   0.14170 C   0  0  0  0  0  0
   0.27430   0.17270  -0.28330 C   0  0  0  0  0  0
  -0.98820  -0.53230   0.21660 C   0  0  0  0  0  0
  -2.22130   0.26760  -0.20830 C   0  0  0  0  0  0
  -3.48380  -0.43740   0.29150 C   0  0  0  0  0  0
  -4.71680   0.36250  -0.13340 C   0  0  0  0  0  0
   3.80620   1.93540  -0.01770 H   0  0  0  0  0  0
   2.03460   2.04700   0.11350 H   0  0  0  0  0  0
   2.97710   1.28260   1.41560 H   0  0  0  0  0  0
   2.69950   0.22840  -1.43540 H   0  0  0  0  0  0
   4.06440  -0.93450   1.03480 H   0  0  0  0  0  0
   3.89650  -1.74940  -0.53870 H   0  0  0  0  0  0
   4.89350  -0.28160  -0.39860 H   0  0  0  0  0  0
   1.45640  -1.62820  -0.28660 H   0  0  0  0  0  0
   1.53720  -0.69840   1.22900 H   0  0  0  0  0  0
   0.32520   1.17370   0.14510 H   0  0  0  0  0  0
   0.24430   0.24390  -1.37050 H   0  0  0  0  0  0
  -1.03920  -1.53330  -0.21170 H   0  0  0  0  0  0
  -0.95830  -0.60350   1.30390 H   0  0  0  0  0  0
  -2.17040   1.26860   0.22000 H   0  0  0  0  0  0
  -2.25120   0.33880  -1.29560 H   0  0  0  0  0  0
  -3.53470  -1.43840  -0.13680 H   0  0  0  0  0  0
  -3.45390  -0.50860   1.37880 H   0  0  0  0  0  0
  -4.74680   0.43370  -1.22070 H   0  0  0  0  0  0
  -5.61630  -0.13980   0.22270 H   0  0  0  0  0  0
  -4.66590   1.36350   0.29490 H   0  0  0  0  0  0
  1  2  1  0  0  0
  2  3  1  0  0  0
  2  4  1  0  0  0
  4  5  1  0  0  0
  5  6  1  0  0  0
  6  7  1  0  0  0
  7  8  1  0  0  0
  8  9  1  0  0  0
  1 10  1  0  0  0
  1 11  1  0  0  0
  1 12  1  0  0  0
  2 13  1  0  0  0
  3 14  1  0  0  0
  3 15  1  0  0  0
  3 16  1  0  0  0
  4 17  1  0  0  0
  4 18  1  0  0  0
  5 19  1  0  0  0
  5 20  1  0  0  0
  6 21  1  0  0  0
  6 22  1  0  0  0
  7 23  1  0  0  0
  7 24  1  0  0  0
  8 25  1  0  0  0
  8 26  1  0  0  0
  9 27  1  0  0  0
  9 28  1  0  0  0
  9 29  1  0  0  0
M  END
