http://cactus.nci.nih.gov/chemical/structure/2-PYRROLIDONE/file?format=sdf&get3d=True
__Jmol-12_10201115263D 1   1.00000     0.00000     0
Jmol version 12.1.38_dev  2011-02-16 08:29 EXTRACT: ({0:12})
 13 13  0  0  0  0              1 V2000
  -0.06540   1.10890   0.01720 N   0  0  0  0  0  0
  -0.80240  -0.01470  -0.01520 C   0  0  0  0  0  0
   0.09640  -1.22250  -0.16270 C   0  0  0  0  0  0
   1.50320  -0.69530   0.20330 C   0  0  0  0  0  0
   1.36620   0.81130  -0.10970 C   0  0  0  0  0  0
  -2.01210  -0.05440   0.06300 O   0  0  0  0  0  0
  -0.43270   2.00200   0.10840 H   0  0  0  0  0  0
  -0.20700  -2.01040   0.52680 H   0  0  0  0  0  0
   0.08080  -1.58650  -1.19000 H   0  0  0  0  0  0
   1.71740  -0.85630   1.25980 H   0  0  0  0  0  0
   2.26750  -1.15580  -0.42280 H   0  0  0  0  0  0
   1.70600   1.01820  -1.12450 H   0  0  0  0  0  0
   1.93870   1.39920   0.60780 H   0  0  0  0  0  0
  1  2  1  0  0  0
  2  3  1  0  0  0
  3  4  1  0  0  0
  4  5  1  0  0  0
  1  5  1  0  0  0
  2  6  2  0  0  0
  1  7  1  0  0  0
  3  8  1  0  0  0
  3  9  1  0  0  0
  4 10  1  0  0  0
  4 11  1  0  0  0
  5 12  1  0  0  0
  5 13  1  0  0  0
M  END
