http://cactus.nci.nih.gov/chemical/structure/3,3,5-TRIMETHYLHEPTANE/file?format=sdf&get3d=True
__Jmol-12_03301210003D 1   1.00000     0.00000     0
Jmol version 12.1.38_dev  2011-02-16 08:29 EXTRACT: ({0:31})
 32 31  0  0  0  0              1 V2000
   1.22100   1.45700   0.17800 C   0  0  0  0  0  0
   1.13530  -0.06030   0.00090 C   0  0  0  0  0  0
   2.35860  -0.71850   0.64220 C   0  0  0  0  0  0
   3.62990  -0.19740  -0.03110 C   0  0  0  0  0  0
  -0.13590  -0.58140   0.67410 C   0  0  0  0  0  0
  -1.36190  -0.05980  -0.07800 C   0  0  0  0  0  0
  -2.62060  -0.73930   0.46500 C   0  0  0  0  0  0
  -3.83050  -0.31240  -0.36850 C   0  0  0  0  0  0
  -1.47450   1.45350   0.11740 C   0  0  0  0  0  0
   1.09760  -0.39830  -1.49090 C   0  0  0  0  0  0
   2.26360   1.77070   0.12500 H   0  0  0  0  0  0
   0.65330   1.94770  -0.61250 H   0  0  0  0  0  0
   0.80730   1.73350   1.14780 H   0  0  0  0  0  0
   2.38550  -0.47770   1.70490 H   0  0  0  0  0  0
   2.29760  -1.79950   0.51600 H   0  0  0  0  0  0
   4.50130  -0.66630   0.42580 H   0  0  0  0  0  0
   3.60300  -0.43820  -1.09380 H   0  0  0  0  0  0
   3.69090   0.88350   0.09510 H   0  0  0  0  0  0
  -0.13560  -1.67130   0.65690 H   0  0  0  0  0  0
  -0.16850  -0.23430   1.70690 H   0  0  0  0  0  0
  -1.25840  -0.28230  -1.14010 H   0  0  0  0  0  0
  -2.50310  -1.82140   0.40720 H   0  0  0  0  0  0
  -2.77280  -0.44530   1.50350 H   0  0  0  0  0  0
  -4.72730  -0.79640   0.01840 H   0  0  0  0  0  0
  -3.94810   0.76970  -0.31060 H   0  0  0  0  0  0
  -3.67830  -0.60630  -1.40700 H   0  0  0  0  0  0
  -0.91670   1.96370  -0.66780 H   0  0  0  0  0  0
  -2.52250   1.74900   0.06940 H   0  0  0  0  0  0
  -1.06440   1.72570   1.09000 H   0  0  0  0  0  0
   2.00330  -0.02700  -1.97050 H   0  0  0  0  0  0
   1.03660  -1.47920  -1.61710 H   0  0  0  0  0  0
   0.22620   0.07070  -1.94770 H   0  0  0  0  0  0
  1  2  1  0  0  0
  2  3  1  0  0  0
  3  4  1  0  0  0
  2  5  1  0  0  0
  5  6  1  0  0  0
  6  7  1  0  0  0
  7  8  1  0  0  0
  6  9  1  0  0  0
  2 10  1  0  0  0
  1 11  1  0  0  0
  1 12  1  0  0  0
  1 13  1  0  0  0
  3 14  1  0  0  0
  3 15  1  0  0  0
  4 16  1  0  0  0
  4 17  1  0  0  0
  4 18  1  0  0  0
  5 19  1  0  0  0
  5 20  1  0  0  0
  6 21  1  0  0  0
  7 22  1  0  0  0
  7 23  1  0  0  0
  8 24  1  0  0  0
  8 25  1  0  0  0
  8 26  1  0  0  0
  9 27  1  0  0  0
  9 28  1  0  0  0
  9 29  1  0  0  0
 10 30  1  0  0  0
 10 31  1  0  0  0
 10 32  1  0  0  0
M  END
