http://cactus.nci.nih.gov/chemical/structure/3-HEXANOL/file?format=sdf&get3d=True
__Jmol-12_10201115333D 1   1.00000     0.00000     0
Jmol version 12.1.38_dev  2011-02-16 08:29 EXTRACT: ({0:20})
 21 20  0  0  0  0              1 V2000
   3.01720   0.27790   0.28160 C   0  0  0  0  0  0
   1.69540   0.78100  -0.30190 C   0  0  0  0  0  0
   0.54240  -0.06310   0.24480 C   0  0  0  0  0  0
  -0.78820   0.51660  -0.23930 C   0  0  0  0  0  0
  -1.94380  -0.25040   0.40680 C   0  0  0  0  0  0
  -3.27440   0.32920  -0.07730 C   0  0  0  0  0  0
   0.67380  -1.40760  -0.22110 O   0  0  0  0  0  0
   2.98960   0.36070   1.36810 H   0  0  0  0  0  0
   3.16510  -0.76480   0.00030 H   0  0  0  0  0  0
   3.83870   0.87930  -0.10780 H   0  0  0  0  0  0
   1.54760   1.82370  -0.02060 H   0  0  0  0  0  0
   1.72300   0.69830  -1.38840 H   0  0  0  0  0  0
   0.56870  -0.05190   1.33440 H   0  0  0  0  0  0
  -0.84930   1.56840   0.03980 H   0  0  0  0  0  0
  -0.85190   0.42410  -1.32350 H   0  0  0  0  0  0
  -1.88270  -1.30230   0.12760 H   0  0  0  0  0  0
  -1.88010  -0.15790   1.49100 H   0  0  0  0  0  0
  -3.33550   1.38110   0.20190 H   0  0  0  0  0  0
  -3.33810   0.23670  -1.16150 H   0  0  0  0  0  0
  -4.09760  -0.21720   0.38300 H   0  0  0  0  0  0
   0.65870  -1.49350  -1.18420 H   0  0  0  0  0  0
  1  2  1  0  0  0
  2  3  1  0  0  0
  3  4  1  0  0  0
  4  5  1  0  0  0
  5  6  1  0  0  0
  3  7  1  0  0  0
  1  8  1  0  0  0
  1  9  1  0  0  0
  1 10  1  0  0  0
  2 11  1  0  0  0
  2 12  1  0  0  0
  3 13  1  0  0  0
  4 14  1  0  0  0
  4 15  1  0  0  0
  5 16  1  0  0  0
  5 17  1  0  0  0
  6 18  1  0  0  0
  6 19  1  0  0  0
  6 20  1  0  0  0
  7 21  1  0  0  0
M  END
