file:/home/renata/3-HYDROXYBENZOIC_ACID.mol
__Jmol-12_06111315223D 1   1.00000     0.00000     0
Jmol version 12.3.28  2012-05-30 15:29 EXTRACT: ({0:15})
 16 16  0  0  0  0              1 V2000
   6.34880   1.87150  -0.63160 C   0  0  0  0  0  0
   6.88630   0.61100  -0.33840 C   0  0  0  0  0  0
   4.96680   2.03880  -0.70300 C   0  0  0  0  0  0
   7.22890   2.89570  -0.83720 O   0  0  0  0  0  0
   4.11900   0.94590  -0.48140 C   0  0  0  0  0  0
   4.65010  -0.31550  -0.18820 C   0  0  0  0  0  0
   2.65570   1.19180  -0.57210 C   0  0  0  0  0  0
   6.03590  -0.46980  -0.11950 C   0  0  0  0  0  0
   2.14460   2.26600  -0.82360 O   0  0  0  0  0  0
   1.91200   0.07940  -0.34370 O   0  0  0  0  0  0
   7.96520   0.50160  -0.28750 H   0  0  0  0  0  0
   4.52370   3.00550  -0.92850 H   0  0  0  0  0  0
   6.73090   3.70590  -1.02890 H   0  0  0  0  0  0
   3.98840  -1.15640  -0.01790 H   0  0  0  0  0  0
   6.45970  -1.44400   0.10720 H   0  0  0  0  0  0
   0.98320   0.36350  -0.42950 H   0  0  0  0  0  0
  1  4  1  0  0  0
  1  2  1  0  0  0
  1  3  2  0  0  0
  2  8  2  0  0  0
  2 11  1  0  0  0
  3 12  1  0  0  0
  4 13  1  0  0  0
  5  7  1  0  0  0
  5  3  1  0  0  0
  6  5  2  0  0  0
  6 14  1  0  0  0
  7  9  2  0  0  0
  7 10  1  0  0  0
  8  6  1  0  0  0
  8 15  1  0  0  0
 10 16  1  0  0  0
M  END
