http://cactus.nci.nih.gov/chemical/structure/3-METHYL-2-PENTANOL/file?format=sdf&get3d=True
__Jmol-12_10201115343D 1   1.00000     0.00000     0
Jmol version 12.1.38_dev  2011-02-16 08:29 EXTRACT: ({0:20})
 21 20  0  0  0  0              1 V2000
   0.27310   1.25130  -0.88380 C   0  0  0  0  0  0
   0.27940   0.33770   0.34340 C   0  0  0  0  0  0
  -1.07030  -0.37410   0.45620 C   0  0  0  0  0  0
  -2.18440   0.66470   0.59940 C   0  0  0  0  0  0
  -1.29610  -1.15590  -0.71850 O   0  0  0  0  0  0
   1.39350  -0.70120   0.20020 C   0  0  0  0  0  0
   2.75180   0.00280   0.21280 C   0  0  0  0  0  0
   1.23460   1.75840  -0.96410 H   0  0  0  0  0  0
   0.10090   0.65500  -1.77980 H   0  0  0  0  0  0
  -0.52060   1.99140  -0.78180 H   0  0  0  0  0  0
   0.45160   0.93400   1.23950 H   0  0  0  0  0  0
  -1.06580  -1.02500   1.33050 H   0  0  0  0  0  0
  -2.18880   1.31560  -0.27490 H   0  0  0  0  0  0
  -3.14590   0.15760   0.67970 H   0  0  0  0  0  0
  -2.01210   1.26100   1.49540 H   0  0  0  0  0  0
  -1.31270  -0.64070  -1.53660 H   0  0  0  0  0  0
   1.34180  -1.40600   1.03000 H   0  0  0  0  0  0
   1.27100  -1.23790  -0.74060 H   0  0  0  0  0  0
   2.80350   0.70770  -0.61700 H   0  0  0  0  0  0
   2.87430   0.53950   1.15350 H   0  0  0  0  0  0
   3.54550  -0.73730   0.11070 H   0  0  0  0  0  0
  1  2  1  0  0  0
  2  3  1  0  0  0
  3  4  1  0  0  0
  3  5  1  0  0  0
  2  6  1  0  0  0
  6  7  1  0  0  0
  1  8  1  0  0  0
  1  9  1  0  0  0
  1 10  1  0  0  0
  2 11  1  0  0  0
  3 12  1  0  0  0
  4 13  1  0  0  0
  4 14  1  0  0  0
  4 15  1  0  0  0
  5 16  1  0  0  0
  6 17  1  0  0  0
  6 18  1  0  0  0
  7 19  1  0  0  0
  7 20  1  0  0  0
  7 21  1  0  0  0
M  END
