http://cactus.nci.nih.gov/chemical/structure/octane/file?format=sdf&get3d=True
__Jmol-12_12051310173D 1   1.00000     0.00000     0
Jmol version 12.3.28  2012-05-30 15:29 EXTRACT: ({0:18 21:30})
 29 28  0  0  0  0              1 V2000
   4.34989   0.52890   0.33282 C   0  0  0  0  0  0
   3.11767  -0.37718   0.29444 C   0  0  0  0  0  0
   1.86070   0.47836   0.12373 C   0  0  0  0  0  0
   0.62848  -0.42772   0.08535 C   0  0  0  0  0  0
  -0.62848   0.42772  -0.08535 C   0  0  0  0  0  0
  -1.86070  -0.47836  -0.12373 C   0  0  0  0  0  0
  -3.11767   0.37718  -0.29444 C   0  0  0  0  0  0
  -4.34989  -0.52890  -0.33282 C   0  0  0  0  0  0
   4.26554   1.22178   1.17006 H   0  0  0  0  0  0
   5.24544  -0.08056   0.45444 H   0  0  0  0  0  0
   4.41677   1.09105  -0.59868 H   0  0  0  0  0  0
   3.20211  -1.06996  -0.54280 H   0  0  0  0  0  0
   3.05089  -0.93922   1.22594 H   0  0  0  0  0  0
   1.77636   1.17114   0.96098 H   0  0  0  0  0  0
   1.92758   1.04041  -0.80776 H   0  0  0  0  0  0
   0.71283  -1.12060  -0.75189 H   0  0  0  0  0  0
   0.56160  -0.98987   1.01685 H   0  0  0  0  0  0
  -0.71283   1.12060   0.75189 H   0  0  0  0  0  0
  -0.56160   0.98987  -1.01685 H   0  0  0  0  0  0
  -3.20211   1.06996   0.54280 H   0  0  0  0  0  0
  -3.05089   0.93922  -1.22594 H   0  0  0  0  0  0
  -4.26554  -1.22178  -1.17006 H   0  0  0  0  0  0
  -4.41677  -1.09105   0.59868 H   0  0  0  0  0  0
  -5.24544   0.08056  -0.45444 H   0  0  0  0  0  0
  -1.94518  -1.35121   1.09323 C   0  0  0  0  0  0
  -1.77907  -1.24258  -0.91069 H   0  0  0  0  0  0
  -2.00653  -0.72119   1.99285 H   0  0  0  0  0  0
  -1.04948  -1.98708   1.15134 H   0  0  0  0  0  0
  -2.84151  -1.98553   1.02805 H   0  0  0  0  0  0
  1  2  1  0  0  0
  2  3  1  0  0  0
  3  4  1  0  0  0
  4  5  1  0  0  0
  5  6  1  0  0  0
  6  7  1  0  0  0
  7  8  1  0  0  0
  1  9  1  0  0  0
  1 10  1  0  0  0
  1 11  1  0  0  0
  2 12  1  0  0  0
  2 13  1  0  0  0
  3 14  1  0  0  0
  3 15  1  0  0  0
  4 16  1  0  0  0
  4 17  1  0  0  0
  5 18  1  0  0  0
  5 19  1  0  0  0
  7 20  1  0  0  0
  7 21  1  0  0  0
  8 22  1  0  0  0
  8 23  1  0  0  0
  8 24  1  0  0  0
 25  6  1  0  0  0
 26  6  1  0  0  0
 27 25  1  0  0  0
 28 25  1  0  0  0
 29 25  1  0  0  0
M  END
