http://cactus.nci.nih.gov/chemical/structure/3-METHYL-3-PENTANOL/file?format=sdf&get3d=True
__Jmol-12_10201115353D 1   1.00000     0.00000     0
Jmol version 12.1.38_dev  2011-02-16 08:29 EXTRACT: ({0:20})
 21 20  0  0  0  0              1 V2000
   0.03200   1.47170  -0.35980 C   0  0  0  0  0  0
   0.00030  -0.01280   0.00900 C   0  0  0  0  0  0
   1.24970  -0.36380   0.81930 C   0  0  0  0  0  0
   2.49800   0.04310   0.03380 C   0  0  0  0  0  0
  -1.24800  -0.30420   0.84440 C   0  0  0  0  0  0
  -2.49740   0.04680   0.03410 C   0  0  0  0  0  0
  -0.03050  -0.79940  -1.18360 O   0  0  0  0  0  0
   0.92120   1.67930  -0.95500 H   0  0  0  0  0  0
  -0.85810   1.72180  -0.93710 H   0  0  0  0  0  0
   0.05550   2.07170   0.54990 H   0  0  0  0  0  0
   1.22830   0.16990   1.76950 H   0  0  0  0  0  0
   1.27190  -1.43750   1.00610 H   0  0  0  0  0  0
   2.51930  -0.49060  -0.91640 H   0  0  0  0  0  0
   2.47580   1.11670  -0.15300 H   0  0  0  0  0  0
   3.38810  -0.20700   0.61110 H   0  0  0  0  0  0
  -1.27060  -1.36180   1.10720 H   0  0  0  0  0  0
  -1.22450   0.29580   1.75420 H   0  0  0  0  0  0
  -2.47480   1.10440  -0.22860 H   0  0  0  0  0  0
  -2.52090  -0.55320  -0.87560 H   0  0  0  0  0  0
  -3.38660  -0.16080   0.62930 H   0  0  0  0  0  0
  -0.05170  -1.75310  -1.02540 H   0  0  0  0  0  0
  1  2  1  0  0  0
  2  3  1  0  0  0
  3  4  1  0  0  0
  2  5  1  0  0  0
  5  6  1  0  0  0
  2  7  1  0  0  0
  1  8  1  0  0  0
  1  9  1  0  0  0
  1 10  1  0  0  0
  3 11  1  0  0  0
  3 12  1  0  0  0
  4 13  1  0  0  0
  4 14  1  0  0  0
  4 15  1  0  0  0
  5 16  1  0  0  0
  5 17  1  0  0  0
  6 18  1  0  0  0
  6 19  1  0  0  0
  6 20  1  0  0  0
  7 21  1  0  0  0
M  END
