
 OpenBabel01241212213D

 15 13  0  0  0  0  0  0  0  0999 V2000
    0.0000    1.2156   -0.0000 C   0  0  0  0  0  0  0  0  0  0  0  0
    0.0000    0.0000    0.0000 O   0  0  0  0  0  0  0  0  0  0  0  0
    0.0000    2.0163    1.2929 C   0  0  0  0  0  0  0  0  0  0  0  0
    0.0000    2.0163   -1.2929 C   0  0  0  0  0  0  0  0  0  0  0  0
    0.0000    1.3385    2.1487 H   0  0  0  0  0  0  0  0  0  0  0  0
    0.0000    1.3385   -2.1487 H   0  0  0  0  0  0  0  0  0  0  0  0
    0.8810    2.6687    1.3407 H   0  0  0  0  0  0  0  0  0  0  0  0
   -0.8810    2.6687    1.3407 H   0  0  0  0  0  0  0  0  0  0  0  0
   -0.8810    2.6687   -1.3407 H   0  0  0  0  0  0  0  0  0  0  0  0
    0.8810    2.6687   -1.3407 H   0  0  0  0  0  0  0  0  0  0  0  0
   -0.7795   -4.3341    1.3798 Cl  0  0  0  0  0  0  0  0  0  0  0  0
    1.7780   -4.3341   -0.0968 Cl  0  0  0  0  0  0  0  0  0  0  0  0
    0.0730   -3.7956   -0.0968 C   0  0  0  0  0  0  0  0  0  0  0  0
    0.0730   -2.7102   -0.0968 H   0  0  0  0  0  0  0  0  0  0  0  0
   -0.7795   -4.3341   -1.5734 Cl  0  0  0  0  0  0  0  0  0  0  0  0
  1  2  2  0  0  0  0
  1  3  1  0  0  0  0
  1  4  1  0  0  0  0
  3  5  1  0  0  0  0
  3  7  1  0  0  0  0
  3  8  1  0  0  0  0
  4  6  1  0  0  0  0
  4  9  1  0  0  0  0
  4 10  1  0  0  0  0
 13 14  1  0  0  0  0
 13 12  1  0  0  0  0
 13 11  1  0  0  0  0
 13 15  1  0  0  0  0
M  END
