file:/home/renata/a√ßucares/alfa-D-Fructofuranose.mol
__Jmol-12_05061413263D 1   1.00000     0.00000     0
Jmol version 12.3.28  2012-05-30 15:29 EXTRACT: ({0:23})
 24 24  0  0  0  0              1 V2000
   3.23050   0.00640   1.11620 O   0  0  0  0  0  0
   4.00970  -0.11690   2.31340 C   0  0  0  0  0  0
   3.08610   0.25380   3.48740 C   0  0  0  0  0  0
   1.72120  -0.20280   2.99270 C   0  0  0  0  0  0
   1.83790  -0.07340   1.46740 C   0  0  0  0  0  0
   1.41190  -0.95370   0.97230 H   0  0  0  0  0  0
   1.15190   1.18620   0.93400 C   0  0  0  0  0  0
   0.90410   0.39750   3.40480 H   0  0  0  0  0  0
   1.48390  -1.55240   3.40240 O   0  0  0  0  0  0
   3.39430  -0.24660   4.41150 H   0  0  0  0  0  0
   3.05500   1.66940   3.72830 O   0  0  0  0  0  0
   5.25850   0.78070   2.22190 C   0  0  0  0  0  0
   4.43610  -1.47410   2.41080 O   0  0  0  0  0  0
   1.30430   1.26430  -0.14830 H   0  0  0  0  0  0
   1.57520   2.08960   1.38630 H   0  0  0  0  0  0
  -0.24600   1.14840   1.19680 O   0  0  0  0  0  0
  -0.63150   1.93490   0.77130 H   0  0  0  0  0  0
   0.70450  -1.87300   2.91540 H   0  0  0  0  0  0
   2.49650   1.80150   4.51640 H   0  0  0  0  0  0
   5.19330  -1.51060   1.79240 H   0  0  0  0  0  0
   6.19020   0.21790   1.27960 O   0  0  0  0  0  0
   6.88390   0.88710   1.14620 H   0  0  0  0  0  0
   5.77440   0.82960   3.18580 H   0  0  0  0  0  0
   5.00070   1.78850   1.88100 H   0  0  0  0  0  0
  1  2  1  0  0  0
  1  5  1  0  0  0
  2  3  1  0  0  0
  2 12  1  0  0  0
  3  4  1  0  0  0
  3 10  1  0  0  0
  4  5  1  0  0  0
  4  8  1  0  0  0
  5  6  1  0  0  0
  7  5  1  0  0  0
  9  4  1  0  0  0
 11  3  1  0  0  0
 13  2  1  0  0  0
 14  7  1  0  0  0
 15  7  1  0  0  0
 16  7  1  0  0  0
 17 16  1  0  0  0
 18  9  1  0  0  0
 19 11  1  0  0  0
 20 13  1  0  0  0
 21 12  1  0  0  0
 22 21  1  0  0  0
 23 12  1  0  0  0
 24 12  1  0  0  0
M  END
