
 OpenBabel01291511293D

 24 24  0  0  1  0  0  0  0  0999 V2000
   -0.7072    1.1876   -0.3069 C   0  0  1  0  0  0  0  0  0  0  0  0
    0.5171    1.8143   -0.6700 O   0  0  0  0  0  0  0  0  0  0  0  0
    1.5748    1.0143   -0.1674 C   0  0  2  0  0  0  0  0  0  0  0  0
   -0.3707   -0.1511    0.3730 C   0  0  2  0  0  0  0  0  0  0  0  0
    0.9716    0.1758    0.9826 C   0  0  2  0  0  0  0  0  0  0  0  0
    2.7427    1.9139    0.2813 C   0  0  0  0  0  0  0  0  0  0  0  0
   -1.5254    2.1486    0.5739 C   0  0  0  0  0  0  0  0  0  0  0  0
   -1.3265    0.9900   -1.2103 H   0  0  0  0  0  0  0  0  0  0  0  0
   -2.7540    1.5582    0.9015 O   0  0  0  0  0  0  0  0  0  0  0  0
   -1.7054    3.0757   -0.0170 H   0  0  0  0  0  0  0  0  0  0  0  0
   -0.9868    2.4271    1.5011 H   0  0  0  0  0  0  0  0  0  0  0  0
   -3.3197    2.2804    1.2798 H   0  0  0  0  0  0  0  0  0  0  0  0
    3.7903    1.1329    0.7894 O   0  0  0  0  0  0  0  0  0  0  0  0
    2.3972    2.6285    1.0603 H   0  0  0  0  0  0  0  0  0  0  0  0
    3.0984    2.4924   -0.6014 H   0  0  0  0  0  0  0  0  0  0  0  0
    4.5474    1.7544    0.9484 H   0  0  0  0  0  0  0  0  0  0  0  0
    2.0147    0.1850   -1.2202 O   0  0  0  0  0  0  0  0  0  0  0  0
    2.6584   -0.4724   -0.8472 H   0  0  0  0  0  0  0  0  0  0  0  0
    0.7745    0.9550    2.1364 O   0  0  0  0  0  0  0  0  0  0  0  0
    1.6170    0.9185    2.6605 H   0  0  0  0  0  0  0  0  0  0  0  0
   -0.2127   -1.1327   -0.6225 O   0  0  0  0  0  0  0  0  0  0  0  0
   -0.0548   -1.9934   -0.1529 H   0  0  0  0  0  0  0  0  0  0  0  0
   -1.1519   -0.5059    1.0842 H   0  0  0  0  0  0  0  0  0  0  0  0
    1.5542   -0.7345    1.2599 H   0  0  0  0  0  0  0  0  0  0  0  0
  1  2  1  0  0  0  0
  1  4  1  0  0  0  0
  1  7  1  0  0  0  0
  1  8  1  6  0  0  0
  2  3  1  0  0  0  0
  3  6  1  1  0  0  0
  3 17  1  0  0  0  0
  4 21  1  0  0  0  0
  4  5  1  0  0  0  0
  4 23  1  1  0  0  0
  5  3  1  0  0  0  0
  5 19  1  0  0  0  0
  5 24  1  1  0  0  0
  6 13  1  0  0  0  0
  6 14  1  0  0  0  0
  6 15  1  0  0  0  0
  7  9  1  0  0  0  0
  7 10  1  0  0  0  0
  7 11  1  0  0  0  0
  9 12  1  0  0  0  0
 13 16  1  0  0  0  0
 17 18  1  0  0  0  0
 19 20  1  0  0  0  0
 21 22  1  0  0  0  0
M  END
