http://cactus.nci.nih.gov/chemical/structure/ALPHA-PINENE/file?format=sdf&get3d=True
__Jmol-12_06131111013D 1   1.00000     0.00000     0
Jmol version 12.1.38_dev  2011-02-16 08:29 EXTRACT: ({0:25})
 26 27  0  0  0  0              1 V2000
  -0.67470   0.62470   1.69940 C   0  0  0  0  0  0
  -2.42690   0.97010  -0.12630 C   0  0  0  0  0  0
   2.55430   1.23810  -0.20420 C   0  0  0  0  0  0
  -0.53120  -0.54330  -1.56440 C   0  0  0  0  0  0
   0.28500  -1.79860   0.47910 C   0  0  0  0  0  0
   0.04890   0.64650  -0.77730 C   0  0  0  0  0  0
  -0.91670  -1.11080  -0.18300 C   0  0  0  0  0  0
   1.38380   0.29060  -0.14630 C   0  0  0  0  0  0
   1.47870  -0.87500   0.45120 C   0  0  0  0  0  0
  -1.07560   0.35750   0.24720 C   0  0  0  0  0  0
   0.01110   1.61540  -1.27510 H   0  0  0  0  0  0
  -1.83650  -1.69550  -0.16660 H   0  0  0  0  0  0
  -1.38590  -0.28420  -2.18920 H   0  0  0  0  0  0
   0.22010  -1.13310  -2.08970 H   0  0  0  0  0  0
   0.03920  -2.04250   1.51270 H   0  0  0  0  0  0
   0.52240  -2.71440  -0.06230 H   0  0  0  0  0  0
   2.40540  -1.17100   0.92030 H   0  0  0  0  0  0
  -0.73260   1.69430   1.90140 H   0  0  0  0  0  0
  -1.35160   0.09170   2.36710 H   0  0  0  0  0  0
   0.34560   0.27850   1.86430 H   0  0  0  0  0  0
  -2.59300   0.85790  -1.19770 H   0  0  0  0  0  0
  -3.22050   0.46010   0.41980 H   0  0  0  0  0  0
  -2.42990   2.02890   0.13290 H   0  0  0  0  0  0
   2.53320   1.89510   0.66530 H   0  0  0  0  0  0
   3.48340   0.66810  -0.20640 H   0  0  0  0  0  0
   2.49290   1.83640  -1.11320 H   0  0  0  0  0  0
  6 10  1  0  0  0
  7 10  1  0  0  0
  1 10  1  0  0  0
  2 10  1  0  0  0
  4  6  1  0  0  0
  6  8  1  0  0  0
  4  7  1  0  0  0
  5  7  1  0  0  0
  8  9  2  0  0  0
  3  8  1  0  0  0
  5  9  1  0  0  0
  6 11  1  0  0  0
  7 12  1  0  0  0
  4 13  1  0  0  0
  4 14  1  0  0  0
  5 15  1  0  0  0
  5 16  1  0  0  0
  9 17  1  0  0  0
  1 18  1  0  0  0
  1 19  1  0  0  0
  1 20  1  0  0  0
  2 21  1  0  0  0
  2 22  1  0  0  0
  2 23  1  0  0  0
  3 24  1  0  0  0
  3 25  1  0  0  0
  3 26  1  0  0  0
M  END
