http://cactus.nci.nih.gov/chemical/structure/BENZYL%20CHLORIDE/file?format=sdf&get3d=True
__Jmol-12_05171114163D 1   1.00000     0.00000     0
Jmol version 12.1.38_dev  2011-02-16 08:29 EXTRACT: ({0:14})
 15 15  0  0  0  0              1 V2000
   1.37610  -0.00200  -0.94970 C   0  0  0  0  0  0
  -0.05390  -0.00090  -0.47440 C   0  0  0  0  0  0
  -0.70970   1.19670  -0.25870 C   0  0  0  0  0  0
  -2.02140   1.19770   0.17740 C   0  0  0  0  0  0
  -2.67760   0.00110   0.39740 C   0  0  0  0  0  0
  -2.02210  -1.19660   0.18090 C   0  0  0  0  0  0
  -0.71170  -1.19760  -0.25940 C   0  0  0  0  0  0
   2.48270   0.00070   0.47380 Cl  0  0  0  0  0  0
   1.55870  -0.89320  -1.55020 H   0  0  0  0  0  0
   1.55890   0.88670  -1.55370 H   0  0  0  0  0  0
  -0.19710   2.13160  -0.43060 H   0  0  0  0  0  0
  -2.53360   2.13340   0.34650 H   0  0  0  0  0  0
  -3.70220   0.00180   0.73880 H   0  0  0  0  0  0
  -2.53460  -2.13150   0.35310 H   0  0  0  0  0  0
  -0.19960  -2.13330  -0.42850 H   0  0  0  0  0  0
  1  2  1  0  0  0
  2  3  2  0  0  0
  3  4  1  0  0  0
  4  5  2  0  0  0
  5  6  1  0  0  0
  6  7  2  0  0  0
  2  7  1  0  0  0
  1  8  1  0  0  0
  1  9  1  0  0  0
  1 10  1  0  0  0
  3 11  1  0  0  0
  4 12  1  0  0  0
  5 13  1  0  0  0
  6 14  1  0  0  0
  7 15  1  0  0  0
M  END
