
 OpenBabel04011111213D

 22 21  0  0  0  0  0  0  0  0999 V2000
    0.0994    2.1762   -0.0444 C   0  0  0  0  0
    0.0992    2.1761   -1.4355 C   0  0  0  0  0
    0.0531    0.9725    0.6512 C   0  0  0  0  0
    0.0526    0.9724   -2.1311 C   0  0  0  0  0
    0.0065   -0.2314   -0.0443 C   0  0  0  0  0
    0.0062   -0.2313   -1.4355 C   0  0  0  0  0
    0.1361    3.1237    0.5029 H   0  0  0  0  0
    0.1355    3.1236   -1.9827 H   0  0  0  0  0
    0.0531    0.9725    1.7460 H   0  0  0  0  0
    0.0524    0.9724   -3.2258 H   0  0  0  0  0
   -0.0303   -1.1786    0.5032 H   0  0  0  0  0
   -0.0303   -1.1788   -1.9828 H   0  0  0  0  0
    0.9218   -0.2937   -9.1220 H   0  0  0  0  0
    0.9218    2.3875   -9.0886 H   0  0  0  0  0
    0.0421   -0.2540   -8.4673 C   0  0  0  0  0
    0.0421    2.3316   -8.4352 C   0  0  0  0  0
    0.0436    1.0288   -7.6506 C   0  0  0  0  0
    0.0460    1.0137   -6.4351 O   0  0  0  0  0
    0.0434   -1.1182   -7.8002 H   0  0  0  0  0
    0.0434    3.1789   -7.7468 H   0  0  0  0  0
   -0.8402   -0.2937   -9.1186 H   0  0  0  0  0
   -0.8402    2.3875   -9.0852 H   0  0  0  0  0
  2  1  2  0  0  0
  1  3  1  0  0  0
  1  7  1  0  0  0
  4  2  1  0  0  0
  2  8  1  0  0  0
  3  5  2  0  0  0
  3  9  1  0  0  0
  6  4  2  0  0  0
  4 10  1  0  0  0
  5  6  1  0  0  0
  5 11  1  0  0  0
  6 12  1  0  0  0
 15 13  1  0  0  0
 16 14  1  0  0  0
 17 15  1  0  0  0
 15 19  1  0  0  0
 15 21  1  0  0  0
 17 16  1  0  0  0
 16 20  1  0  0  0
 16 22  1  0  0  0
 17 18  2  0  0  0
M  END
