
 OpenBabel04011113233D

 22 21  0  0  0  0  0  0  0  0999 V2000
    1.5575    1.0516   -1.5766 C   0  0  0  0  0
    0.2863    1.0568   -2.1416 C   0  0  0  0  0
    1.7055    1.1392   -0.1963 C   0  0  0  0  0
   -0.8370    1.1498   -1.3263 C   0  0  0  0  0
    0.5823    1.2323    0.6192 C   0  0  0  0  0
   -0.6889    1.2376    0.0540 C   0  0  0  0  0
    2.4414    0.9783   -2.2185 H   0  0  0  0  0
    0.1700    0.9879   -3.2280 H   0  0  0  0  0
    2.7060    1.1353    0.2483 H   0  0  0  0  0
   -1.8373    1.1539   -1.7709 H   0  0  0  0  0
    0.6990    1.3016    1.7054 H   0  0  0  0  0
   -1.5728    1.3106    0.6959 H   0  0  0  0  0
    0.9270   -0.3270   -9.1038 H   0  0  0  0  0
    0.9270    2.3544   -9.1038 H   0  0  0  0  0
    0.0460   -0.2792   -8.4514 C   0  0  0  0  0
    0.0460    2.3066   -8.4514 C   0  0  0  0  0
    0.0460    1.0137   -7.6507 C   0  0  0  0  0
    0.0460    1.0137   -6.4351 O   0  0  0  0  0
    0.0460   -1.1350   -7.7736 H   0  0  0  0  0
    0.0460    3.1624   -7.7736 H   0  0  0  0  0
   -0.8350   -0.3270   -9.1038 H   0  0  0  0  0
   -0.8350    2.3544   -9.1038 H   0  0  0  0  0
  2  1  2  0  0  0
  1  3  1  0  0  0
  1  7  1  0  0  0
  4  2  1  0  0  0
  2  8  1  0  0  0
  3  5  2  0  0  0
  3  9  1  0  0  0
  6  4  2  0  0  0
  4 10  1  0  0  0
  5  6  1  0  0  0
  5 11  1  0  0  0
  6 12  1  0  0  0
 15 13  1  0  0  0
 16 14  1  0  0  0
 17 15  1  0  0  0
 15 19  1  0  0  0
 15 21  1  0  0  0
 17 16  1  0  0  0
 16 20  1  0  0  0
 16 22  1  0  0  0
 17 18  2  0  0  0
M  END
