Benzyl ethanoate, ID: C140114
  NIST    04042217083D 1   1.00000     0.00000      
NIST Chemistry WebBook
 21 21  0     0  0              1 V2000
    0.8872    1.6672    1.6876 O   0  0  0  0  0  0           0  0  0
    1.3811    2.9837    1.4951 C   0  0  0  0  0  0           0  0  0
    2.8819    3.0450    1.4681 C   0  0  0  0  0  0           0  0  0
    0.7784    1.1685    2.9574 C   0  0  0  0  0  0           0  0  0
    3.5115    4.0008    2.2731 C   0  0  0  0  0  0           0  0  0
    3.6512    2.2199    0.6510 C   0  0  0  0  0  0           0  0  0
    0.9735    1.9769    4.2063 C   0  0  0  0  0  0           0  0  0
    0.4593    0.0000    2.8838 O   0  0  0  0  0  0           0  0  0
    4.8941    4.1275    2.2526 C   0  0  0  0  0  0           0  0  0
    5.0369    2.3470    0.6408 C   0  0  0  0  0  0           0  0  0
    5.6601    3.3004    1.4361 C   0  0  0  0  0  0           0  0  0
    0.9601    3.2417    0.5073 H   0  0  0  0  0  0           0  0  0
    0.9644    3.6802    2.2514 H   0  0  0  0  0  0           0  0  0
    2.9127    4.6540    2.9193 H   0  0  0  0  0  0           0  0  0
    3.1610    1.4671    0.0226 H   0  0  0  0  0  0           0  0  0
    0.0000    2.2200    4.6520 H   0  0  0  0  0  0           0  0  0
    1.5493    1.4087    4.9480 H   0  0  0  0  0  0           0  0  0
    1.5029    2.9236    4.0187 H   0  0  0  0  0  0           0  0  0
    5.3818    4.8773    2.8841 H   0  0  0  0  0  0           0  0  0
    5.6368    1.6921    0.0000 H   0  0  0  0  0  0           0  0  0
    6.7503    3.4014    1.4224 H   0  0  0  0  0  0           0  0  0
  1  2  1  0     0  0
  1  4  1  0     0  0
  2  3  1  0     0  0
  2 12  1  0     0  0
  2 13  1  0     0  0
  3  5  2  0     0  0
  6  3  1  0     0  0
  4  7  1  0     0  0
  4  8  2  0     0  0
  5  9  1  0     0  0
  5 14  1  0     0  0
 10  6  2  0     0  0
  6 15  1  0     0  0
  7 16  1  0     0  0
  7 17  1  0     0  0
  7 18  1  0     0  0
  9 11  2  0     0  0
  9 19  1  0     0  0
 11 10  1  0     0  0
 10 20  1  0     0  0
 11 21  1  0     0  0
M  END
