http://cactus.nci.nih.gov/chemical/structure/BENZYL%20ALCOHOL/file?format=sdf&get3d=True
__Jmol-12_10201115373D 1   1.00000     0.00000     0
Jmol version 12.1.38_dev  2011-02-16 08:29 EXTRACT: ({0:15})
 16 16  0  0  0  0              1 V2000
   1.92160  -0.00110  -0.56390 C   0  0  0  0  0  0
   0.44010  -0.00050  -0.28770 C   0  0  0  0  0  0
  -0.23920   1.19690  -0.16300 C   0  0  0  0  0  0
  -1.59820   1.19740   0.09040 C   0  0  0  0  0  0
  -2.27780   0.00060   0.21870 C   0  0  0  0  0  0
  -1.59860  -1.19690   0.09300 C   0  0  0  0  0  0
  -0.24050  -1.19740  -0.16470 C   0  0  0  0  0  0
   2.63680   0.00090   0.67320 O   0  0  0  0  0  0
   2.18450  -0.89200  -1.13420 H   0  0  0  0  0  0
   2.18470   0.88790  -1.13710 H   0  0  0  0  0  0
   0.29180   2.13200  -0.26320 H   0  0  0  0  0  0
  -2.12880   2.13300   0.18860 H   0  0  0  0  0  0
  -3.33940   0.00100   0.41740 H   0  0  0  0  0  0
  -2.12960  -2.13190   0.19360 H   0  0  0  0  0  0
   0.29010  -2.13290  -0.26280 H   0  0  0  0  0  0
   3.59840   0.00060   0.57160 H   0  0  0  0  0  0
  1  2  1  0  0  0
  2  3  2  0  0  0
  3  4  1  0  0  0
  4  5  2  0  0  0
  5  6  1  0  0  0
  6  7  2  0  0  0
  2  7  1  0  0  0
  1  8  1  0  0  0
  1  9  1  0  0  0
  1 10  1  0  0  0
  3 11  1  0  0  0
  4 12  1  0  0  0
  5 13  1  0  0  0
  6 14  1  0  0  0
  7 15  1  0  0  0
  8 16  1  0  0  0
M  END
