file:/home/renata/a√ßucares/beta-D-Fructopyranose.mol
__Jmol-12_05061414123D 1   1.00000     0.00000     0
Jmol version 12.3.28  2012-05-30 15:29 EXTRACT: ({0:23})
 24 24  0  0  0  0              1 V2000
  -2.74314   2.28305  -1.38012 C   0  0  0  0  0  0
  -2.79115   0.84391  -1.36436 O   0  0  0  0  0  0
  -2.21716   2.78600  -2.72146 C   0  0  0  0  0  0
  -1.81535   2.73364  -0.25165 C   0  0  0  0  0  0
  -3.76432   2.63245  -1.19919 H   0  0  0  0  0  0
  -0.88032   2.32193  -2.92896 O   0  0  0  0  0  0
  -2.25490   3.87844  -2.79157 H   0  0  0  0  0  0
  -2.82164   2.37465  -3.53644 H   0  0  0  0  0  0
  -0.36304   2.33178  -0.53713 C   0  0  0  0  0  0
  -2.20924   2.13135   0.99350 O   0  0  0  0  0  0
  -1.88469   3.81833  -0.10838 H   0  0  0  0  0  0
  -0.26751   1.24390  -0.43751 H   0  0  0  0  0  0
   0.48582   2.92709   0.46204 O   0  0  0  0  0  0
   0.05572   2.80046  -1.95044 C   0  0  0  0  0  0
   1.46571   2.28114  -2.32460 C   0  0  0  0  0  0
   0.10226   4.23201  -1.97476 O   0  0  0  0  0  0
  -2.18333   0.52564  -2.06297 H   0  0  0  0  0  0
   0.46550   4.48692  -1.10300 H   0  0  0  0  0  0
   1.62558   0.87597  -2.11603 O   0  0  0  0  0  0
   2.24543   2.80847  -1.76243 H   0  0  0  0  0  0
   1.65557   2.47254  -3.38664 H   0  0  0  0  0  0
   1.96287   0.76077  -1.20988 H   0  0  0  0  0  0
  -2.60143   1.26546   0.75065 H   0  0  0  0  0  0
   0.03316   2.74983   1.31395 H   0  0  0  0  0  0
  1  2  1  0  0  0
  1  3  1  0  0  0
  1  4  1  0  0  0
  1  5  1  0  0  0
  2 17  1  0  0  0
  3  6  1  0  0  0
  3  7  1  0  0  0
  3  8  1  0  0  0
  4  9  1  0  0  0
  4 10  1  0  0  0
  4 11  1  0  0  0
  9 12  1  0  0  0
  9 13  1  0  0  0
  9 14  1  0  0  0
 10 23  1  0  0  0
 13 24  1  0  0  0
 14  6  1  0  0  0
 14 15  1  0  0  0
 14 16  1  0  0  0
 15 19  1  0  0  0
 15 20  1  0  0  0
 15 21  1  0  0  0
 16 18  1  0  0  0
 19 22  1  0  0  0
M  END
