6348 carbon disulfide (http://www.chemspider.com/)
  Marvin  12300703363D          

  3  2  0  0  0  0            999 V2000
    1.6320    0.0000    0.0000 S   0  0  0  0  0  0  0  0  0  0  0  0
   -1.6320    0.0000    0.0000 S   0  0  0  0  0  0  0  0  0  0  0  0
    0.0000    0.0000    0.0000 C   0  0  0  0  0  0  0  0  0  0  0  0
  1  3  2  0  0  0  0
  2  3  2  0  0  0  0
M  END
$$$$
