C2H3ClF2
APtclcactv11031115133D 0   0.00000     0.00000
 
  8  7  0  0  0  0  0  0  0  0999 V2000
   -1.4234    0.0046   -0.0000 Cl  0  0  0  0  0  0  0  0  0  0  0  0
    0.3794    0.0283   -0.0000 C   0  0  0  0  0  0  0  0  0  0  0  0
    0.8704    1.4773   -0.0000 C   0  0  0  0  0  0  0  0  0  0  0  0
    0.8544   -0.6251    1.1423 F   0  0  0  0  0  0  0  0  0  0  0  0
    0.8544   -0.6251   -1.1423 F   0  0  0  0  0  0  0  0  0  0  0  0
    0.5004    1.9863    0.8900 H   0  0  0  0  0  0  0  0  0  0  0  0
    1.9603    1.4917   -0.0000 H   0  0  0  0  0  0  0  0  0  0  0  0
    0.5004    1.9863   -0.8900 H   0  0  0  0  0  0  0  0  0  0  0  0
  1  2  1  0  0  0  0
  2  3  1  0  0  0  0
  2  4  1  0  0  0  0
  2  5  1  0  0  0  0
  3  6  1  0  0  0  0
  3  7  1  0  0  0  0
  3  8  1  0  0  0  0
M  END
$$$$
