1,3-Cyclopentadiene, ID: C542927
  NIST    04042217093D 1   1.00000     0.00000      
NIST Chemistry WebBook
 11 11  0     0  0              1 V2000
    2.5909    1.3082    0.7323 C   0  0  0  0  0  0           0  0  0
    1.3250    0.5079    0.8485 C   0  0  0  0  0  0           0  0  0
    2.8063    1.7988    2.1357 C   0  0  0  0  0  0           0  0  0
    0.8871    0.5396    2.1277 C   0  0  0  0  0  0           0  0  0
    1.8105    1.3444    2.9302 C   0  0  0  0  0  0           0  0  0
    2.4813    2.1451    0.0191 H   0  0  0  0  0  0           0  0  0
    3.4359    0.6889    0.3810 H   0  0  0  0  0  0           0  0  0
    0.8726    0.0000    0.0000 H   0  0  0  0  0  0           0  0  0
    3.6520    2.4224    2.4154 H   0  0  0  0  0  0           0  0  0
    0.0000    0.0605    2.5368 H   0  0  0  0  0  0           0  0  0
    1.6784    1.5231    3.9952 H   0  0  0  0  0  0           0  0  0
  1  2  1  0     0  0
  3  1  1  0     0  0
  1  6  1  0     0  0
  1  7  1  0     0  0
  2  4  2  0     0  0
  2  8  1  0     0  0
  5  3  2  0     0  0
  3  9  1  0     0  0
  4  5  1  0     0  0
  4 10  1  0     0  0
  5 11  1  0     0  0
M  END
