http://cactus.nci.nih.gov/chemical/structure/CYCLOHEXANOL/file?format=sdf&get3d=True
__Jmol-12_10201115373D 1   1.00000     0.00000     0
Jmol version 12.1.38_dev  2011-02-16 08:29 EXTRACT: ({0:18})
 19 19  0  0  0  0              1 V2000
  -0.97540  -0.02680   0.32880 C   0  0  0  0  0  0
  -0.25050  -1.26270  -0.20780 C   0  0  0  0  0  0
   1.21130  -1.23220   0.24280 C   0  0  0  0  0  0
   1.88570   0.02990  -0.29870 C   0  0  0  0  0  0
   1.16080   1.26570   0.23790 C   0  0  0  0  0  0
  -0.30100   1.23530  -0.21270 C   0  0  0  0  0  0
  -2.34080  -0.05520  -0.09210 O   0  0  0  0  0  0
  -0.93090  -0.02380   1.41790 H   0  0  0  0  0  0
  -0.73090  -2.16180   0.17800 H   0  0  0  0  0  0
  -0.29500  -1.26570  -1.29690 H   0  0  0  0  0  0
   1.25580  -1.22920   1.33190 H   0  0  0  0  0  0
   1.72780  -2.11270  -0.13950 H   0  0  0  0  0  0
   2.92720   0.05160   0.02230 H   0  0  0  0  0  0
   1.84120   0.02680  -1.38780 H   0  0  0  0  0  0
   1.20530   1.26880   1.32700 H   0  0  0  0  0  0
   1.64130   2.16490  -0.14790 H   0  0  0  0  0  0
  -0.34550   1.23230  -1.30180 H   0  0  0  0  0  0
  -0.81750   2.11580   0.16960 H   0  0  0  0  0  0
  -2.86210   0.70000   0.21270 H   0  0  0  0  0  0
  1  2  1  0  0  0
  2  3  1  0  0  0
  3  4  1  0  0  0
  4  5  1  0  0  0
  5  6  1  0  0  0
  1  6  1  0  0  0
  1  7  1  0  0  0
  1  8  1  0  0  0
  2  9  1  0  0  0
  2 10  1  0  0  0
  3 11  1  0  0  0
  3 12  1  0  0  0
  4 13  1  0  0  0
  4 14  1  0  0  0
  5 15  1  0  0  0
  5 16  1  0  0  0
  6 17  1  0  0  0
  6 18  1  0  0  0
  7 19  1  0  0  0
M  END
