12743
  Marvin  12300703363D          

 33 32  0  0  0  0            999 V2000
   -0.2481   -0.3509    0.0000 O   0  0  0  0  0  0  0  0  0  0  0  0
    1.6635   -1.8721   -0.0000 C   0  0  0  0  0  0  0  0  0  0  0  0
   -2.3195    0.9443    0.0000 C   0  0  0  0  0  0  0  0  0  0  0  0
    3.2093   -1.9480   -0.0000 C   0  0  0  0  0  0  0  0  0  0  0  0
   -2.9063    2.3764    0.0000 C   0  0  0  0  0  0  0  0  0  0  0  0
    1.1835   -0.4069    0.0000 C   0  0  0  0  0  0  0  0  0  0  0  0
   -0.7781    0.9802   -0.0000 C   0  0  0  0  0  0  0  0  0  0  0  0
    3.7795   -3.3850    0.0000 C   0  0  0  0  0  0  0  0  0  0  0  0
   -4.4513    2.4350    0.0000 C   0  0  0  0  0  0  0  0  0  0  0  0
    5.3220   -3.4021    0.0000 C   0  0  0  0  0  0  0  0  0  0  0  0
   -4.9815    3.8836   -0.0000 C   0  0  0  0  0  0  0  0  0  0  0  0
    1.2652   -2.3765    0.8836 H   0  0  0  0  0  0  0  0  0  0  0  0
    1.2652   -2.3765   -0.8836 H   0  0  0  0  0  0  0  0  0  0  0  0
   -2.6623    0.4006   -0.8836 H   0  0  0  0  0  0  0  0  0  0  0  0
   -2.6623    0.4006    0.8836 H   0  0  0  0  0  0  0  0  0  0  0  0
    3.5861   -1.4224   -0.8834 H   0  0  0  0  0  0  0  0  0  0  0  0
    3.5861   -1.4224    0.8834 H   0  0  0  0  0  0  0  0  0  0  0  0
   -2.5365    2.9069   -0.8834 H   0  0  0  0  0  0  0  0  0  0  0  0
   -2.5365    2.9069    0.8834 H   0  0  0  0  0  0  0  0  0  0  0  0
    1.5789    0.0956   -0.8901 H   0  0  0  0  0  0  0  0  0  0  0  0
    1.5789    0.0956    0.8901 H   0  0  0  0  0  0  0  0  0  0  0  0
   -0.4361    1.5204   -0.8901 H   0  0  0  0  0  0  0  0  0  0  0  0
   -0.4361    1.5204    0.8901 H   0  0  0  0  0  0  0  0  0  0  0  0
    3.4192   -3.9185    0.8834 H   0  0  0  0  0  0  0  0  0  0  0  0
    3.4192   -3.9185   -0.8834 H   0  0  0  0  0  0  0  0  0  0  0  0
   -4.8342    1.9175   -0.8834 H   0  0  0  0  0  0  0  0  0  0  0  0
   -4.8342    1.9175    0.8834 H   0  0  0  0  0  0  0  0  0  0  0  0
    5.6866   -4.4304   -0.0000 H   0  0  0  0  0  0  0  0  0  0  0  0
    5.7131   -2.8983   -0.8868 H   0  0  0  0  0  0  0  0  0  0  0  0
    5.7131   -2.8983    0.8868 H   0  0  0  0  0  0  0  0  0  0  0  0
   -6.0725    3.8846    0.0000 H   0  0  0  0  0  0  0  0  0  0  0  0
   -4.6369    4.4203   -0.8868 H   0  0  0  0  0  0  0  0  0  0  0  0
   -4.6369    4.4203    0.8868 H   0  0  0  0  0  0  0  0  0  0  0  0
  1  6  1  0  0  0  0
  1  7  1  0  0  0  0
  2  4  1  0  0  0  0
  2  6  1  0  0  0  0
  2 12  1  0  0  0  0
  2 13  1  0  0  0  0
  3  5  1  0  0  0  0
  3  7  1  0  0  0  0
  3 14  1  0  0  0  0
  3 15  1  0  0  0  0
  4  8  1  0  0  0  0
  4 16  1  0  0  0  0
  4 17  1  0  0  0  0
  5  9  1  0  0  0  0
  5 18  1  0  0  0  0
  5 19  1  0  0  0  0
  6 20  1  0  0  0  0
  6 21  1  0  0  0  0
  7 22  1  0  0  0  0
  7 23  1  0  0  0  0
  8 10  1  0  0  0  0
  8 24  1  0  0  0  0
  8 25  1  0  0  0  0
  9 11  1  0  0  0  0
  9 26  1  0  0  0  0
  9 27  1  0  0  0  0
 10 28  1  0  0  0  0
 10 29  1  0  0  0  0
 10 30  1  0  0  0  0
 11 31  1  0  0  0  0
 11 32  1  0  0  0  0
 11 33  1  0  0  0  0
M  END
$$$$
