http://cactus.nci.nih.gov/chemical/structure/DIIODOMETHANE/file?format=sdf&get3d=True
__Jmol-12_06131112513D 1   1.00000     0.00000     0
Jmol version 12.1.38_dev  2011-02-16 08:29 EXTRACT: ({0:4})
  5  4  0  0  0  0              1 V2000
  -1.76530   0.07010   0.00000 I   0  0  0  0  0  0
  -0.00000  -1.17810  -0.00000 C   0  0  0  0  0  0
   1.76530   0.07010   0.00000 I   0  0  0  0  0  0
   0.00000  -1.80740   0.89000 H   0  0  0  0  0  0
  -0.00000  -1.80740  -0.89000 H   0  0  0  0  0  0
  1  2  1  0  0  0
  2  3  1  0  0  0
  2  4  1  0  0  0
  2  5  1  0  0  0
M  END
