12346
  Marvin  12300703363D          

 27 26  0  0  0  0            999 V2000
   -0.0412   -0.0582   -0.4325 O   0  0  0  0  0  0  0  0  0  0  0  0
    1.8873   -1.6081   -0.3274 C   0  0  1  0  0  0  0  0  0  0  0  0
   -2.1453    1.2434   -0.3274 C   0  0  2  0  0  0  0  0  0  0  0  0
    1.3943   -0.1376   -0.3928 C   0  0  0  0  0  0  0  0  0  0  0  0
   -0.5945    1.2686   -0.3928 C   0  0  0  0  0  0  0  0  0  0  0  0
    3.4380   -1.6617   -0.3802 C   0  0  0  0  0  0  0  0  0  0  0  0
    1.3242   -2.3673    0.9048 C   0  0  0  0  0  0  0  0  0  0  0  0
   -2.7127    2.6875   -0.3802 C   0  0  0  0  0  0  0  0  0  0  0  0
   -2.6733    0.4593    0.9048 C   0  0  0  0  0  0  0  0  0  0  0  0
    1.5147   -2.1205   -1.2190 H   0  0  0  0  0  0  0  0  0  0  0  0
   -2.5042    0.7213   -1.2190 H   0  0  0  0  0  0  0  0  0  0  0  0
    1.7976    0.3415   -1.2902 H   0  0  0  0  0  0  0  0  0  0  0  0
    1.7769    0.3986    0.4804 H   0  0  0  0  0  0  0  0  0  0  0  0
   -0.2772    1.8086   -1.2902 H   0  0  0  0  0  0  0  0  0  0  0  0
   -0.2166    1.8082    0.4804 H   0  0  0  0  0  0  0  0  0  0  0  0
    3.8110   -1.1707   -1.2823 H   0  0  0  0  0  0  0  0  0  0  0  0
    3.7956   -2.6927   -0.3972 H   0  0  0  0  0  0  0  0  0  0  0  0
    3.8768   -1.1592    0.4843 H   0  0  0  0  0  0  0  0  0  0  0  0
    1.6652   -3.4047    0.9110 H   0  0  0  0  0  0  0  0  0  0  0  0
    0.2323   -2.3857    0.8876 H   0  0  0  0  0  0  0  0  0  0  0  0
    1.6415   -1.8970    1.8372 H   0  0  0  0  0  0  0  0  0  0  0  0
   -2.3741    3.2028   -1.2823 H   0  0  0  0  0  0  0  0  0  0  0  0
   -3.8039    2.6809   -0.3972 H   0  0  0  0  0  0  0  0  0  0  0  0
   -2.3852    3.2687    0.4843 H   0  0  0  0  0  0  0  0  0  0  0  0
   -3.7650    0.4351    0.9110 H   0  0  0  0  0  0  0  0  0  0  0  0
   -2.3267   -0.5762    0.8876 H   0  0  0  0  0  0  0  0  0  0  0  0
   -2.3357    0.9153    1.8372 H   0  0  0  0  0  0  0  0  0  0  0  0
  1  4  1  0  0  0  0
  1  5  1  0  0  0  0
  2  4  1  0  0  0  0
  2  6  1  0  0  0  0
  2  7  1  0  0  0  0
  2 10  1  0  0  0  0
  3  5  1  0  0  0  0
  3  8  1  0  0  0  0
  3  9  1  0  0  0  0
  3 11  1  0  0  0  0
  4 12  1  0  0  0  0
  4 13  1  0  0  0  0
  5 14  1  0  0  0  0
  5 15  1  0  0  0  0
  6 16  1  0  0  0  0
  6 17  1  0  0  0  0
  6 18  1  0  0  0  0
  7 19  1  0  0  0  0
  7 20  1  0  0  0  0
  7 21  1  0  0  0  0
  8 22  1  0  0  0  0
  8 23  1  0  0  0  0
  8 24  1  0  0  0  0
  9 25  1  0  0  0  0
  9 26  1  0  0  0  0
  9 27  1  0  0  0  0
M  END
$$$$
