
 OpenBabel12081021333D

 14 13  0  0  0  0  0  0  0  0999 V2000
    1.6767    2.0891    1.3392 O   0  0  0  0  0
    1.4574    3.4915    1.5344 C   0  0  0  0  0
    2.2012    3.9166    2.7855 C   0  0  0  0  0
    0.9593    1.5493    0.3161 C   0  0  0  0  0
    1.2561    0.0855    0.1930 C   0  0  0  0  0
    0.2059    2.1633   -0.4244 O   0  0  0  0  0
    1.8377    4.0448    0.6683 H   0  0  0  0  0
    0.3867    3.6902    1.6585 H   0  0  0  0  0
    2.0435    4.9789    2.9912 H   0  0  0  0  0
    1.8647    3.3348    3.6498 H   0  0  0  0  0
    3.2750    3.7332    2.6766 H   0  0  0  0  0
    0.4287   -0.4073   -0.3250 H   0  0  0  0  0
    2.1804   -0.0556   -0.3715 H   0  0  0  0  0
    1.3449   -0.3670    1.1846 H   0  0  0  0  0
  1  2  1  0  0  0
  1  4  1  0  0  0
  2  3  1  0  0  0
  2  7  1  0  0  0
  2  8  1  0  0  0
  3  9  1  0  0  0
  3 10  1  0  0  0
  3 11  1  0  0  0
  4  5  1  0  0  0
  4  6  2  0  0  0
  5 12  1  0  0  0
  5 13  1  0  0  0
  5 14  1  0  0  0
M  END
