http://cactus.nci.nih.gov/chemical/structure/ethyl%20propyl%20ketone/file?format=sdf&get3d=True
__Jmol-12_10201116253D 1   1.00000     0.00000     0
Jmol version 12.1.38_dev  2011-02-16 08:29 EXTRACT: ({0:18})
 19 18  0  0  0  0              1 V2000
  -0.81370  -0.65460  -0.00000 C   0  0  0  0  0  0
  -1.89620   0.42670   0.00000 C   0  0  0  0  0  0
  -3.27640  -0.23350   0.00000 C   0  0  0  0  0  0
   0.54580  -0.00430   0.00000 C   0  0  0  0  0  0
   0.63930   1.19970   0.00000 O   0  0  0  0  0  0
   1.78870  -0.85660   0.00000 C   0  0  0  0  0  0
   3.02510   0.04470   0.00000 C   0  0  0  0  0  0
  -0.91970  -1.27490   0.89000 H   0  0  0  0  0  0
  -0.91970  -1.27490  -0.89000 H   0  0  0  0  0  0
  -1.79010   1.04700   0.89000 H   0  0  0  0  0  0
  -1.79010   1.04700  -0.89000 H   0  0  0  0  0  0
  -4.04760   0.53680   0.00000 H   0  0  0  0  0  0
  -3.38250  -0.85380  -0.89000 H   0  0  0  0  0  0
  -3.38250  -0.85380   0.89000 H   0  0  0  0  0  0
   1.79780  -1.48580   0.89000 H   0  0  0  0  0  0
   1.79780  -1.48580  -0.89000 H   0  0  0  0  0  0
   3.92400  -0.57170   0.00000 H   0  0  0  0  0  0
   3.01600   0.67400  -0.89000 H   0  0  0  0  0  0
   3.01600   0.67400   0.89000 H   0  0  0  0  0  0
  1  2  1  0  0  0
  2  3  1  0  0  0
  1  4  1  0  0  0
  4  5  2  0  0  0
  4  6  1  0  0  0
  6  7  1  0  0  0
  1  8  1  0  0  0
  1  9  1  0  0  0
  2 10  1  0  0  0
  2 11  1  0  0  0
  3 12  1  0  0  0
  3 13  1  0  0  0
  3 14  1  0  0  0
  6 15  1  0  0  0
  6 16  1  0  0  0
  7 17  1  0  0  0
  7 18  1  0  0  0
  7 19  1  0  0  0
M  END
