http://cactus.nci.nih.gov/chemical/structure/ethylene/file?format=sdf&get3d=True
__Jmol-12_09191117073D 1   1.00000     0.00000     0
Jmol version 12.1.38_dev  2011-02-16 08:29 EXTRACT: ({0:5})
  6  5  0  0  0  0              1 V2000
   0.65500   0.00000  -0.00040 C   0  0  0  0  0  0
  -0.65500   0.00000   0.00010 C   0  0  0  0  0  0
   1.19500   0.93530   0.00060 H   0  0  0  0  0  0
   1.19500  -0.93530   0.00280 H   0  0  0  0  0  0
  -1.19500  -0.93530  -0.00090 H   0  0  0  0  0  0
  -1.19500   0.93530   0.00140 H   0  0  0  0  0  0
  1  2  2  0  0  0
  1  3  1  0  0  0
  1  4  1  0  0  0
  2  5  1  0  0  0
  2  6  1  0  0  0
M  END
