http://cactus.nci.nih.gov/chemical/structure/Ethyl%20phenyl%20ketone/file?format=sdf&get3d=True
__Jmol-12_05171114413D 1   1.00000     0.00000     0
Jmol version 12.1.38_dev  2011-02-16 08:29 EXTRACT: ({0:19})
 20 20  0  0  0  0              1 V2000
   0.23220  -0.10400   0.00350 C   0  0  0  0  0  0
   1.08600  -1.21160   0.00270 C   0  0  0  0  0  0
   2.45210  -1.02450  -0.00040 C   0  0  0  0  0  0
   2.97890   0.25540  -0.00260 C   0  0  0  0  0  0
   2.14060   1.35670  -0.00130 C   0  0  0  0  0  0
   0.77230   1.18610   0.00130 C   0  0  0  0  0  0
  -1.22700  -0.29490   0.00070 C   0  0  0  0  0  0
  -1.69190  -1.41480  -0.00240 O   0  0  0  0  0  0
  -2.14350   0.90140   0.00160 C   0  0  0  0  0  0
  -3.59870   0.42910  -0.00180 C   0  0  0  0  0  0
   0.67640  -2.21090   0.00480 H   0  0  0  0  0  0
   3.11280  -1.87880  -0.00070 H   0  0  0  0  0  0
   4.04980   0.39550  -0.00500 H   0  0  0  0  0  0
   2.55920   2.35220  -0.00240 H   0  0  0  0  0  0
   0.11940   2.04640   0.00190 H   0  0  0  0  0  0
  -1.95800   1.50050   0.89310 H   0  0  0  0  0  0
  -1.95500   1.50420  -0.88680 H   0  0  0  0  0  0
  -4.26160   1.29430  -0.00120 H   0  0  0  0  0  0
  -3.78420  -0.17000  -0.89340 H   0  0  0  0  0  0
  -3.78720  -0.17370   0.88660 H   0  0  0  0  0  0
  1  2  2  0  0  0
  2  3  1  0  0  0
  3  4  2  0  0  0
  4  5  1  0  0  0
  5  6  2  0  0  0
  1  6  1  0  0  0
  1  7  1  0  0  0
  7  8  2  0  0  0
  7  9  1  0  0  0
  9 10  1  0  0  0
  2 11  1  0  0  0
  3 12  1  0  0  0
  4 13  1  0  0  0
  5 14  1  0  0  0
  6 15  1  0  0  0
  9 16  1  0  0  0
  9 17  1  0  0  0
 10 18  1  0  0  0
 10 19  1  0  0  0
 10 20  1  0  0  0
M  END
