file:/home/renata/glycerol/METHYLOLEATE.mol
__Jmol-12_05061414343D 1   1.00000     0.00000     0
Jmol version 12.3.28  2012-05-30 15:29 EXTRACT: ({0:59})
 60 59  0  0  0  0              1 V2000
  -0.60500   0.07184  -0.26560 C   0  0  0  0  0  0
  -0.54246   1.29080  -0.16729 O   0  0  0  0  0  0
  -1.72357  -0.67084  -0.04822 O   0  0  0  0  0  0
   0.58836  -0.80100  -0.57192 C   0  0  0  0  0  0
  -2.88234   0.10313   0.26517 C   0  0  0  0  0  0
  -4.04574  -0.83443   0.39740 C   0  0  0  0  0  0
  -3.10161   0.81351  -0.53843 H   0  0  0  0  0  0
  -2.74571   0.62437   1.21765 H   0  0  0  0  0  0
   0.97315  -1.20242   0.37170 H   0  0  0  0  0  0
   1.36133  -0.15117  -0.99967 H   0  0  0  0  0  0
   0.27228  -1.92776  -1.55443 C   0  0  0  0  0  0
  -0.29042  -1.52979  -2.40813 H   0  0  0  0  0  0
  -0.37223  -2.67141  -1.06995 H   0  0  0  0  0  0
   1.55101  -2.60147  -2.05359 C   0  0  0  0  0  0
   2.13840  -2.96059  -1.19962 H   0  0  0  0  0  0
   2.16666  -1.86208  -2.58031 H   0  0  0  0  0  0
   1.24387  -3.77429  -2.98729 C   0  0  0  0  0  0
   0.56652  -3.44602  -3.78501 H   0  0  0  0  0  0
   0.72744  -4.56326  -2.42739 H   0  0  0  0  0  0
   2.52608  -4.32857  -3.60998 C   0  0  0  0  0  0
   3.23395  -4.60276  -2.81802 H   0  0  0  0  0  0
   3.00299  -3.54407  -4.21013 H   0  0  0  0  0  0
   2.25161  -5.55286  -4.48691 C   0  0  0  0  0  0
   1.44801  -5.32793  -5.19940 H   0  0  0  0  0  0
   1.90126  -6.37995  -3.85675 H   0  0  0  0  0  0
   3.51203  -5.96642  -5.25477 C   0  0  0  0  0  0
   4.34087  -6.05677  -4.54384 H   0  0  0  0  0  0
   3.77186  -5.17702  -5.96978 H   0  0  0  0  0  0
   3.31824  -7.25331  -6.00926 C   0  0  0  0  0  0
   4.25350  -8.19758  -6.20886 C   0  0  0  0  0  0
   5.69222  -8.11744  -5.77770 C   0  0  0  0  0  0
   5.79596  -8.61851  -4.80806 H   0  0  0  0  0  0
   5.99751  -7.07341  -5.64567 H   0  0  0  0  0  0
   6.63640  -8.77877  -6.78821 C   0  0  0  0  0  0
   2.32304  -7.43038  -6.41539 H   0  0  0  0  0  0
   3.95833  -9.10121  -6.74081 H   0  0  0  0  0  0
   6.45452  -8.38233  -7.79509 H   0  0  0  0  0  0
   6.43566  -9.85688  -6.82499 H   0  0  0  0  0  0
   8.09719  -8.53497  -6.40239 C   0  0  0  0  0  0
   8.25499  -8.82252  -5.35575 H   0  0  0  0  0  0
   8.31536  -7.46232  -6.47736 H   0  0  0  0  0  0
   9.06451  -9.31885  -7.29046 C   0  0  0  0  0  0
   8.88571  -9.07593  -8.34479 H   0  0  0  0  0  0
   8.88114 -10.39322  -7.16879 H   0  0  0  0  0  0
  10.51601  -8.99695  -6.92825 C   0  0  0  0  0  0
  10.67317  -9.16355  -5.85553 H   0  0  0  0  0  0
  10.71162  -7.93490  -7.12103 H   0  0  0  0  0  0
  11.50284  -9.85322  -7.72249 C   0  0  0  0  0  0
  11.34172  -9.70504  -8.79708 H   0  0  0  0  0  0
  11.32005 -10.91374  -7.51054 H   0  0  0  0  0  0
  12.94728  -9.50005  -7.36591 C   0  0  0  0  0  0
  13.10480  -9.61643  -6.28716 H   0  0  0  0  0  0
  13.14319  -8.44942  -7.61008 H   0  0  0  0  0  0
  13.93955 -10.37895  -8.10992 C   0  0  0  0  0  0
  13.82681 -10.26935  -9.19309 H   0  0  0  0  0  0
  13.79744 -11.43364  -7.85348 H   0  0  0  0  0  0
  14.96437 -10.10076  -7.84462 H   0  0  0  0  0  0
  -3.84409  -1.55801   1.20100 H   0  0  0  0  0  0
  -4.19345  -1.37162  -0.55108 H   0  0  0  0  0  0
  -4.95294  -0.26130   0.63926 H   0  0  0  0  0  0
  1  2  2  0  0  0
  3  1  1  0  0  0
  4  1  1  0  0  0
  5  3  1  0  0  0
  6  5  1  0  0  0
  7  5  1  0  0  0
  8  5  1  0  0  0
  9  4  1  0  0  0
 10  4  1  0  0  0
 11  4  1  0  0  0
 12 11  1  0  0  0
 13 11  1  0  0  0
 14 11  1  0  0  0
 15 14  1  0  0  0
 16 14  1  0  0  0
 17 14  1  0  0  0
 18 17  1  0  0  0
 19 17  1  0  0  0
 20 17  1  0  0  0
 21 20  1  0  0  0
 22 20  1  0  0  0
 23 20  1  0  0  0
 24 23  1  0  0  0
 25 23  1  0  0  0
 26 23  1  0  0  0
 27 26  1  0  0  0
 28 26  1  0  0  0
 29 26  1  0  0  0
 30 29  2  0  0  0
 31 30  1  0  0  0
 32 31  1  0  0  0
 33 31  1  0  0  0
 34 31  1  0  0  0
 35 29  1  0  0  0
 36 30  1  0  0  0
 37 34  1  0  0  0
 38 34  1  0  0  0
 39 34  1  0  0  0
 40 39  1  0  0  0
 41 39  1  0  0  0
 42 39  1  0  0  0
 43 42  1  0  0  0
 44 42  1  0  0  0
 45 42  1  0  0  0
 46 45  1  0  0  0
 47 45  1  0  0  0
 48 45  1  0  0  0
 49 48  1  0  0  0
 50 48  1  0  0  0
 51 48  1  0  0  0
 52 51  1  0  0  0
 53 51  1  0  0  0
 54 51  1  0  0  0
 55 54  1  0  0  0
 56 54  1  0  0  0
 57 54  1  0  0  0
 58  6  1  0  0  0
 59  6  1  0  0  0
 60  6  1  0  0  0
M  END
