http://cactus.nci.nih.gov/chemical/structure/ETHYLAMINE/file?format=sdf&get3d=True
__Jmol-12_10251115403D 1   1.00000     0.00000     0
Jmol version 12.1.38_dev  2011-02-16 08:29 EXTRACT: ({0:9})
 10  9  0  0  0  0              1 V2000
   0.00840  -0.58290   0.03520 C   0  0  0  0  0  0
  -1.26610   0.26200  -0.01750 C   0  0  0  0  0  0
   1.18210   0.29460  -0.06660 N   0  0  0  0  0  0
   0.04360  -1.12890   0.97800 H   0  0  0  0  0  0
   0.01030  -1.28990  -0.79440 H   0  0  0  0  0  0
  -1.26790   0.96890   0.81210 H   0  0  0  0  0  0
  -1.30130   0.80800  -0.96020 H   0  0  0  0  0  0
  -2.13700  -0.38910   0.05800 H   0  0  0  0  0  0
   1.16950   1.00050   0.65430 H   0  0  0  0  0  0
   2.03720  -0.24010  -0.03410 H   0  0  0  0  0  0
  1  2  1  0  0  0
  1  3  1  0  0  0
  1  4  1  0  0  0
  1  5  1  0  0  0
  2  6  1  0  0  0
  2  7  1  0  0  0
  2  8  1  0  0  0
  3  9  1  0  0  0
  3 10  1  0  0  0
M  END
