
 OpenBabel11141310073D

 21 21  0  0  0  0  0  0  0  0999 V2000
    2.3578    2.4057   -0.2490 C   0  0  0  0  0  0  0  0  0  0  0  0
    3.7733    1.8332   -0.2875 C   0  0  0  0  0  0  0  0  0  0  0  0
    1.5136    1.2744    0.3270 C   0  0  0  0  0  0  0  0  0  0  0  0
    3.8431    1.0623    1.0290 C   0  0  0  0  0  0  0  0  0  0  0  0
    2.4670    0.4166    1.1590 C   0  0  0  0  0  0  0  0  0  0  0  0
    2.3080    3.2783    0.4147 H   0  0  0  0  0  0  0  0  0  0  0  0
    2.0065    2.7161   -1.2376 H   0  0  0  0  0  0  0  0  0  0  0  0
    3.8487    1.1249   -1.1247 H   0  0  0  0  0  0  0  0  0  0  0  0
    4.8400    2.9167   -0.4423 C   0  0  0  0  0  0  0  0  0  0  0  0
    0.6837    1.6610    0.9268 H   0  0  0  0  0  0  0  0  0  0  0  0
    1.0821    0.6718   -0.4808 H   0  0  0  0  0  0  0  0  0  0  0  0
    4.6417    0.3147    1.0372 H   0  0  0  0  0  0  0  0  0  0  0  0
    4.0120    1.7453    1.8711 H   0  0  0  0  0  0  0  0  0  0  0  0
    2.1532    0.3572    2.2059 H   0  0  0  0  0  0  0  0  0  0  0  0
    2.4862   -0.6059    0.7640 H   0  0  0  0  0  0  0  0  0  0  0  0
    4.7781    3.6334    0.3860 H   0  0  0  0  0  0  0  0  0  0  0  0
    4.6485    3.4809   -1.3629 H   0  0  0  0  0  0  0  0  0  0  0  0
    6.2502    2.3490   -0.5014 C   0  0  0  0  0  0  0  0  0  0  0  0
    6.3484    1.6266   -1.3180 H   0  0  0  0  0  0  0  0  0  0  0  0
    6.5196    1.8510    0.4348 H   0  0  0  0  0  0  0  0  0  0  0  0
    6.9729    3.1533   -0.6719 H   0  0  0  0  0  0  0  0  0  0  0  0
  1  2  1  0  0  0  0
  1  6  1  0  0  0  0
  1  7  1  0  0  0  0
  2  4  1  0  0  0  0
  2  8  1  0  0  0  0
  2  9  1  0  0  0  0
  3  1  1  0  0  0  0
  3 10  1  0  0  0  0
  3 11  1  0  0  0  0
  4  5  1  0  0  0  0
  4 12  1  0  0  0  0
  4 13  1  0  0  0  0
  5  3  1  0  0  0  0
  5 14  1  0  0  0  0
  5 15  1  0  0  0  0
 16  9  1  0  0  0  0
 17  9  1  0  0  0  0
 18  9  1  0  0  0  0
 19 18  1  0  0  0  0
 20 18  1  0  0  0  0
 21 18  1  0  0  0  0
M  END
