Jmol Model Kit
__Jmol-12_08161314103D 1   1.00000     0.00000     0
Jmol version 12.3.28  2012-05-30 15:29 EXTRACT: ({0:9})
 10  9  0  0  0  0              1 V2000
  -0.00026  -0.00010  -0.00004 C   0  0  0  0  0  0
   1.38107   0.55098   0.19551 C   0  0  0  0  0  0
  -0.32384  -0.50218   0.91294 H   0  0  0  0  0  0
  -0.94531   1.12097  -0.31639 O   0  0  0  0  0  0
   0.00670  -0.71398  -0.82505 H   0  0  0  0  0  0
   2.32645  -0.56981   0.51189 O   0  0  0  0  0  0
   1.37437   1.27079   1.02728 H   0  0  0  0  0  0
   1.70759   1.05727  -0.72484 H   0  0  0  0  0  0
   3.24733  -0.20242   0.64226 H   0  0  0  0  0  0
  -1.86630   0.75385  -0.44681 H   0  0  0  0  0  0
  1  2  1  0  0  0
  1  3  1  0  0  0
  1  4  1  0  0  0
  1  5  1  0  0  0
  6  2  1  0  0  0
  7  2  1  0  0  0
  8  2  1  0  0  0
  9  6  1  0  0  0
 10  4  1  0  0  0
M  END
