file:/home/renata/glycerol/GLYCEROL_TRI-OLEATE.mol
__Jmol-12_04241414443D 1   1.00000     0.00000     0
Jmol version 12.3.28  2012-05-30 15:29 EXTRACT: ({0:166})
167166  0  0  0  0              1 V2000
  -0.41310  -0.02280  -0.35860 C   0  0  0  0  0  0
   1.06060  -0.28010  -0.18270 C   0  0  0  0  0  0
  -0.86350   0.99060  -0.87800 O   0  0  0  0  0  0
   1.49190  -1.67710  -0.62260 C   0  0  0  0  0  0
   1.31720  -0.10140   0.86740 H   0  0  0  0  0  0
   1.59130   0.47040  -0.78150 H   0  0  0  0  0  0
   1.09680  -1.89520  -1.62210 H   0  0  0  0  0  0
   1.07130  -2.42840   0.05660 H   0  0  0  0  0  0
   3.01740  -1.78040  -0.63000 C   0  0  0  0  0  0
   3.40340  -1.52670   0.36520 H   0  0  0  0  0  0
   3.42630  -1.04030  -1.32940 H   0  0  0  0  0  0
   3.51110  -3.17330  -1.02560 C   0  0  0  0  0  0
   3.14160  -3.42970  -2.02550 H   0  0  0  0  0  0
   3.11340  -3.91970  -0.32780 H   0  0  0  0  0  0
   5.04040  -3.21330  -1.00810 C   0  0  0  0  0  0
   5.39700  -2.96110  -0.00170 H   0  0  0  0  0  0
   5.43150  -2.44530  -1.68740 H   0  0  0  0  0  0
   5.59940  -4.57670  -1.42030 C   0  0  0  0  0  0
   5.31360  -4.79290  -2.45710 H   0  0  0  0  0  0
   5.16310  -5.36350  -0.79250 H   0  0  0  0  0  0
   7.12620  -4.58870  -1.27530 C   0  0  0  0  0  0
   7.38730  -4.48240  -0.21580 H   0  0  0  0  0  0
   7.53060  -3.71760  -1.80280 H   0  0  0  0  0  0
   7.74630  -5.85620  -1.79560 C   0  0  0  0  0  0
   8.91600  -5.94460  -2.45260 C   0  0  0  0  0  0
  -1.16740  -1.00170   0.21280 O   0  0  0  0  0  0
  -2.58080  -0.74510   0.14220 C   0  0  0  0  0  0
  -3.34050  -1.82110   0.92870 C   0  0  0  0  0  0
  -2.88080  -1.91820   1.92000 H   0  0  0  0  0  0
  -3.18210  -3.13950   0.34650 O   0  0  0  0  0  0
  -4.81010  -1.42080   1.12610 C   0  0  0  0  0  0
  -5.31940  -1.28190   0.16950 H   0  0  0  0  0  0
  -4.83970  -0.48090   1.68790 H   0  0  0  0  0  0
  -5.49660  -2.43960   1.88320 O   0  0  0  0  0  0
  -3.73440  -3.40720  -0.86410 C   0  0  0  0  0  0
  -4.36510  -2.61340  -1.54710 O   0  0  0  0  0  0
  -3.49080  -4.84400  -1.23990 C   0  0  0  0  0  0
  -2.58040  -5.19340  -0.73810 H   0  0  0  0  0  0
  -3.28570  -4.88770  -2.31560 H   0  0  0  0  0  0
  -4.69090  -5.71000  -0.87270 C   0  0  0  0  0  0
  -5.54520  -5.44310  -1.50680 H   0  0  0  0  0  0
  -4.99460  -5.51240   0.16300 H   0  0  0  0  0  0
  -4.35520  -7.19140  -1.03370 C   0  0  0  0  0  0
  -3.53340  -7.44720  -0.35320 H   0  0  0  0  0  0
  -3.99670  -7.37970  -2.05340 H   0  0  0  0  0  0
  -5.55660  -8.09560  -0.74820 C   0  0  0  0  0  0
  -6.32650  -7.93650  -1.51240 H   0  0  0  0  0  0
  -5.99980  -7.83730   0.22090 H   0  0  0  0  0  0
  -5.12170  -9.56140  -0.73320 C   0  0  0  0  0  0
  -4.41450  -9.71530   0.09140 H   0  0  0  0  0  0
  -4.58510  -9.79460  -1.66160 H   0  0  0  0  0  0
  -6.30010 -10.52660  -0.58510 C   0  0  0  0  0  0
  -6.93040 -10.47120  -1.48130 H   0  0  0  0  0  0
  -6.92340 -10.23320   0.26860 H   0  0  0  0  0  0
  -5.78650 -11.95660  -0.37830 C   0  0  0  0  0  0
  -5.31370 -12.02740   0.60850 H   0  0  0  0  0  0
  -5.01310 -12.15640  -1.12770 H   0  0  0  0  0  0
  -6.88020 -12.98530  -0.46080 C   0  0  0  0  0  0
  -6.77210 -14.20360  -1.01970 C   0  0  0  0  0  0
  -5.52210 -14.79120  -1.61600 C   0  0  0  0  0  0
  -7.65980 -14.83450  -1.04220 H   0  0  0  0  0  0
  -6.82930  -2.34730   2.14520 C   0  0  0  0  0  0
  -7.42740  -3.27750   2.67460 O   0  0  0  0  0  0
  -7.49670  -1.04180   1.76700 C   0  0  0  0  0  0
  -8.94340  -0.93410   2.25450 C   0  0  0  0  0  0
  -8.98940  -1.11870   3.33460 H   0  0  0  0  0  0
  -9.56040  -1.70100   1.77110 H   0  0  0  0  0  0
  -9.49090   0.45890   1.93900 C   0  0  0  0  0  0
  -9.46810   0.62130   0.85420 H   0  0  0  0  0  0
  -8.83250   1.21380   2.38770 H   0  0  0  0  0  0
 -10.91350   0.67050   2.45680 C   0  0  0  0  0  0
 -10.94010   0.51160   3.54120 H   0  0  0  0  0  0
 -11.59070  -0.06140   2.00110 H   0  0  0  0  0  0
 -11.38310   2.08910   2.12610 C   0  0  0  0  0  0
 -11.40760   2.21880   1.03710 H   0  0  0  0  0  0
 -10.65600   2.81200   2.51770 H   0  0  0  0  0  0
 -12.76000   2.40360   2.71220 C   0  0  0  0  0  0
 -12.71860   2.32140   3.80560 H   0  0  0  0  0  0
 -13.49240   1.66700   2.35930 H   0  0  0  0  0  0
 -13.20440   3.81390   2.30500 C   0  0  0  0  0  0
 -13.37210   3.84230   1.22180 H   0  0  0  0  0  0
 -12.39110   4.51280   2.52350 H   0  0  0  0  0  0
 -14.47360   4.22520   2.99730 C   0  0  0  0  0  0
 -14.70590   5.39080   3.62570 C   0  0  0  0  0  0
 -13.76330   6.55830   3.73180 C   0  0  0  0  0  0
 -15.27570   3.48780   2.98800 H   0  0  0  0  0  0
 -15.67350   5.51590   4.11090 H   0  0  0  0  0  0
  -7.48160  -0.94150   0.67690 H   0  0  0  0  0  0
  -6.92920  -0.22390   2.22270 H   0  0  0  0  0  0
  -2.87810  -0.73180  -0.91100 H   0  0  0  0  0  0
  -2.78400   0.23700   0.58700 H   0  0  0  0  0  0
   9.84860  -4.79910  -2.73790 C   0  0  0  0  0  0
   9.72930  -4.01240  -1.98440 H   0  0  0  0  0  0
   9.58590  -4.36990  -3.71200 H   0  0  0  0  0  0
  11.32050  -5.22770  -2.76070 C   0  0  0  0  0  0
   7.18570  -6.77430  -1.62550 H   0  0  0  0  0  0
   9.22940  -6.92610  -2.80600 H   0  0  0  0  0  0
  11.48580  -5.92940  -3.58780 H   0  0  0  0  0  0
  11.57820  -5.75420  -1.83330 H   0  0  0  0  0  0
  12.22980  -4.00710  -2.92520 C   0  0  0  0  0  0
  12.12870  -3.36070  -2.04440 H   0  0  0  0  0  0
  11.90290  -3.42050  -3.79260 H   0  0  0  0  0  0
  13.69710  -4.39750  -3.10720 C   0  0  0  0  0  0
  13.80240  -5.01370  -4.00830 H   0  0  0  0  0  0
  14.03100  -5.00420  -2.25700 H   0  0  0  0  0  0
  14.57670  -3.15060  -3.22810 C   0  0  0  0  0  0
  14.50880  -2.56620  -2.30230 H   0  0  0  0  0  0
  14.20090  -2.51390  -4.03850 H   0  0  0  0  0  0
  16.03780  -3.50790  -3.50240 C   0  0  0  0  0  0
  16.10620  -4.08220  -4.43430 H   0  0  0  0  0  0
  16.41990  -4.14800  -2.69810 H   0  0  0  0  0  0
  16.89910  -2.24890  -3.61140 C   0  0  0  0  0  0
  16.85190  -1.68430  -2.67280 H   0  0  0  0  0  0
  16.50800  -1.59680  -4.40120 H   0  0  0  0  0  0
  18.34910  -2.58560  -3.91850 C   0  0  0  0  0  0
  18.43470  -3.11700  -4.87170 H   0  0  0  0  0  0
  18.78140  -3.21410  -3.13350 H   0  0  0  0  0  0
  18.94400  -1.66930  -3.98650 H   0  0  0  0  0  0
  -4.63260 -14.28410  -1.22700 H   0  0  0  0  0  0
  -5.54440 -14.63190  -2.70050 H   0  0  0  0  0  0
  -5.38340 -16.29130  -1.33220 C   0  0  0  0  0  0
  -6.17950 -16.83840  -1.85230 H   0  0  0  0  0  0
  -5.50200 -16.48910  -0.25950 H   0  0  0  0  0  0
  -4.01410 -16.79630  -1.79430 C   0  0  0  0  0  0
  -3.23240 -16.31700  -1.19170 H   0  0  0  0  0  0
  -3.84400 -16.49730  -2.83600 H   0  0  0  0  0  0
  -3.88710 -18.31580  -1.68140 C   0  0  0  0  0  0
  -4.62840 -18.79300  -2.33360 H   0  0  0  0  0  0
  -4.10310 -18.63500  -0.65480 H   0  0  0  0  0  0
  -2.47960 -18.77000  -2.07560 C   0  0  0  0  0  0
  -1.75140 -18.34630  -1.37300 H   0  0  0  0  0  0
  -2.23190 -18.37880  -3.07000 H   0  0  0  0  0  0
  -2.35460 -20.29370  -2.08740 C   0  0  0  0  0  0
  -3.06620 -20.71350  -2.80870 H   0  0  0  0  0  0
  -2.61710 -20.69550  -1.10140 H   0  0  0  0  0  0
  -0.93450 -20.72440  -2.45670 C   0  0  0  0  0  0
  -0.22520 -20.33720  -1.71580 H   0  0  0  0  0  0
  -0.65470 -20.29680  -3.42670 H   0  0  0  0  0  0
  -0.80730 -22.23750  -2.52630 C   0  0  0  0  0  0
 -12.99100   6.51250   2.95730 H   0  0  0  0  0  0
 -13.25880   6.51060   4.70410 H   0  0  0  0  0  0
 -14.49410   7.90050   3.60970 C   0  0  0  0  0  0
 -15.19350   8.01530   4.44730 H   0  0  0  0  0  0
 -15.08820   7.92510   2.68750 H   0  0  0  0  0  0
 -13.49810   9.06320   3.60450 C   0  0  0  0  0  0
 -12.86270   8.99150   2.71310 H   0  0  0  0  0  0
 -12.83800   8.98650   4.47720 H   0  0  0  0  0  0
 -14.20400  10.42000   3.62400 C   0  0  0  0  0  0
 -14.80130  10.50670   4.53970 H   0  0  0  0  0  0
 -14.89620  10.49280   2.77670 H   0  0  0  0  0  0
 -13.19040  11.56470   3.55810 C   0  0  0  0  0  0
 -12.64050  11.51000   2.61050 H   0  0  0  0  0  0
 -12.45500  11.45220   4.36420 H   0  0  0  0  0  0
 -13.87000  12.92930   3.67980 C   0  0  0  0  0  0
 -14.40180  12.98890   4.63720 H   0  0  0  0  0  0
 -14.61840  13.04270   2.88610 H   0  0  0  0  0  0
 -12.84920  14.06400   3.58860 C   0  0  0  0  0  0
 -12.34040  14.02820   2.61820 H   0  0  0  0  0  0
 -12.08180  13.93910   4.36150 H   0  0  0  0  0  0
 -13.50720  15.42400   3.75750 C   0  0  0  0  0  0
 -13.98920  15.50690   4.73680 H   0  0  0  0  0  0
 -14.26440  15.59300   2.98540 H   0  0  0  0  0  0
 -12.75870  16.21890   3.67970 H   0  0  0  0  0  0
  -1.47320 -22.65150  -3.29020 H   0  0  0  0  0  0
  -1.05690 -22.69770  -1.56520 H   0  0  0  0  0  0
   0.21890 -22.51940  -2.78240 H   0  0  0  0  0  0
  -7.84160 -12.70250  -0.03390 H   0  0  0  0  0  0
  1  2  1  0  0  0
  1  3  2  0  0  0
  4  2  1  0  0  0
  5  2  1  0  0  0
  6  2  1  0  0  0
  7  4  1  0  0  0
  8  4  1  0  0  0
  9  4  1  0  0  0
 10  9  1  0  0  0
 11  9  1  0  0  0
 12  9  1  0  0  0
 13 12  1  0  0  0
 14 12  1  0  0  0
 15 12  1  0  0  0
 16 15  1  0  0  0
 17 15  1  0  0  0
 18 15  1  0  0  0
 19 18  1  0  0  0
 20 18  1  0  0  0
 21 18  1  0  0  0
 22 21  1  0  0  0
 23 21  1  0  0  0
 24 21  1  0  0  0
 25 24  2  0  0  0
 26  1  1  0  0  0
 27 26  1  0  0  0
 28 27  1  0  0  0
 28 29  1  0  0  0
 30 28  1  0  0  0
 31 28  1  0  0  0
 32 31  1  0  0  0
 33 31  1  0  0  0
 34 31  1  0  0  0
 35 30  1  0  0  0
 36 35  2  0  0  0
 37 35  1  0  0  0
 38 37  1  0  0  0
 39 37  1  0  0  0
 40 37  1  0  0  0
 41 40  1  0  0  0
 42 40  1  0  0  0
 43 40  1  0  0  0
 44 43  1  0  0  0
 45 43  1  0  0  0
 46 43  1  0  0  0
 47 46  1  0  0  0
 48 46  1  0  0  0
 49 46  1  0  0  0
 50 49  1  0  0  0
 51 49  1  0  0  0
 52 49  1  0  0  0
 53 52  1  0  0  0
 54 52  1  0  0  0
 55 52  1  0  0  0
 56 55  1  0  0  0
 57 55  1  0  0  0
 58 55  1  0  0  0
 59 58  2  0  0  0
 60 59  1  0  0  0
 61 59  1  0  0  0
 62 34  1  0  0  0
 63 62  2  0  0  0
 64 62  1  0  0  0
 65 64  1  0  0  0
 66 65  1  0  0  0
 67 65  1  0  0  0
 68 65  1  0  0  0
 69 68  1  0  0  0
 70 68  1  0  0  0
 71 68  1  0  0  0
 72 71  1  0  0  0
 73 71  1  0  0  0
 74 71  1  0  0  0
 75 74  1  0  0  0
 76 74  1  0  0  0
 77 74  1  0  0  0
 78 77  1  0  0  0
 79 77  1  0  0  0
 80 77  1  0  0  0
 81 80  1  0  0  0
 82 80  1  0  0  0
 83 80  1  0  0  0
 84 83  2  0  0  0
 85 84  1  0  0  0
 86 83  1  0  0  0
 87 84  1  0  0  0
 88 64  1  0  0  0
 89 64  1  0  0  0
 90 27  1  0  0  0
 91 27  1  0  0  0
 92 25  1  0  0  0
 93 92  1  0  0  0
 94 92  1  0  0  0
 95 92  1  0  0  0
 96 24  1  0  0  0
 97 25  1  0  0  0
 98 95  1  0  0  0
 99 95  1  0  0  0
100 95  1  0  0  0
101100  1  0  0  0
102100  1  0  0  0
103100  1  0  0  0
104103  1  0  0  0
105103  1  0  0  0
106103  1  0  0  0
107106  1  0  0  0
108106  1  0  0  0
109106  1  0  0  0
110109  1  0  0  0
111109  1  0  0  0
112109  1  0  0  0
113112  1  0  0  0
114112  1  0  0  0
115112  1  0  0  0
116115  1  0  0  0
117115  1  0  0  0
118115  1  0  0  0
119 60  1  0  0  0
120 60  1  0  0  0
121 60  1  0  0  0
122121  1  0  0  0
123121  1  0  0  0
124121  1  0  0  0
125124  1  0  0  0
126124  1  0  0  0
127124  1  0  0  0
128127  1  0  0  0
129127  1  0  0  0
130127  1  0  0  0
131130  1  0  0  0
132130  1  0  0  0
133130  1  0  0  0
134133  1  0  0  0
135133  1  0  0  0
136133  1  0  0  0
137136  1  0  0  0
138136  1  0  0  0
139136  1  0  0  0
140 85  1  0  0  0
141 85  1  0  0  0
142 85  1  0  0  0
143142  1  0  0  0
144142  1  0  0  0
145142  1  0  0  0
146145  1  0  0  0
147145  1  0  0  0
148145  1  0  0  0
149148  1  0  0  0
150148  1  0  0  0
151148  1  0  0  0
152151  1  0  0  0
153151  1  0  0  0
154151  1  0  0  0
155154  1  0  0  0
156154  1  0  0  0
157154  1  0  0  0
158157  1  0  0  0
159157  1  0  0  0
160157  1  0  0  0
161160  1  0  0  0
162160  1  0  0  0
163160  1  0  0  0
164139  1  0  0  0
165139  1  0  0  0
166139  1  0  0  0
167 58  1  0  0  0
M  END
