http://cactus.nci.nih.gov/chemical/structure/glycerol/file?format=sdf&get3d=True
__Jmol-12_04061108143D 1   1.00000     0.00000     0
Jmol version 12.1.38_dev  2011-02-16 08:29 EXTRACT: ({0:13})
 14 13  0  0  0  0              1 V2000
   2.33554  -0.67855  -0.07678 O   0  0  0  0  0  0
   1.33089   0.12441   0.54625 C   0  0  0  0  0  0
   0.02730   0.01692  -0.24735 C   0  0  0  0  0  0
  -0.46337  -1.32351  -0.17804 O   0  0  0  0  0  0
  -1.01102   0.97131   0.34573 C   0  0  0  0  0  0
  -2.18837   0.95742  -0.46412 O   0  0  0  0  0  0
   3.13849  -0.58264   0.45334 H   0  0  0  0  0  0
   1.16604  -0.22589   1.56521 H   0  0  0  0  0  0
   1.65842   1.16389   0.56796 H   0  0  0  0  0  0
   0.21251   0.28266  -1.28814 H   0  0  0  0  0  0
  -0.61378  -1.51802   0.75713 H   0  0  0  0  0  0
  -1.26211   0.65219   1.35731 H   0  0  0  0  0  0
  -0.60175   1.98123   0.37444 H   0  0  0  0  0  0
  -2.81527   1.57040  -0.05644 H   0  0  0  0  0  0
  1  2  1  0  0  0
  2  3  1  0  0  0
  3  4  1  0  0  0
  3  5  1  0  0  0
  5  6  1  0  0  0
  1  7  1  0  0  0
  2  8  1  0  0  0
  2  9  1  0  0  0
  3 10  1  0  0  0
  4 11  1  0  0  0
  5 12  1  0  0  0
  5 13  1  0  0  0
  6 14  1  0  0  0
M  END
