file:/home/renata/glycerol/GLYCEROL_1,2-DI-OLEATE-3-LINOLEATE.mol
__Jmol-12_04241415053D 1   1.00000     0.00000     0
Jmol version 12.3.28  2012-05-30 15:29 EXTRACT: ({0:164})
165164  0  0  0  0              1 V2000
  -0.32490  -0.15310  -0.41930 C   0  0  0  0  0  0
   1.09280  -0.32070   0.06070 C   0  0  0  0  0  0
  -0.66850   0.67240  -1.25490 O   0  0  0  0  0  0
   1.63270  -1.72990  -0.16340 C   0  0  0  0  0  0
   1.13240  -0.04270   1.12000 H   0  0  0  0  0  0
   1.71110   0.40340  -0.48390 H   0  0  0  0  0  0
   1.51980  -2.00750  -1.21850 H   0  0  0  0  0  0
   1.04900  -2.45390   0.41780 H   0  0  0  0  0  0
   3.10500  -1.80560   0.24430 C   0  0  0  0  0  0
   3.20440  -1.53180   1.30190 H   0  0  0  0  0  0
   3.67940  -1.07020  -0.33280 H   0  0  0  0  0  0
   3.69970  -3.19640   0.02030 C   0  0  0  0  0  0
   3.61020  -3.46900  -1.03810 H   0  0  0  0  0  0
   3.13580  -3.93950   0.59670 H   0  0  0  0  0  0
   5.17170  -3.22560   0.44030 C   0  0  0  0  0  0
   5.25120  -2.99230   1.50920 H   0  0  0  0  0  0
   5.72130  -2.44580  -0.10130 H   0  0  0  0  0  0
   5.81830  -4.58320   0.16290 C   0  0  0  0  0  0
   5.74160  -4.81180  -0.90760 H   0  0  0  0  0  0
   5.27000  -5.36810   0.69930 H   0  0  0  0  0  0
   7.28970  -4.59050   0.59070 C   0  0  0  0  0  0
   7.35830  -4.42820   1.67340 H   0  0  0  0  0  0
   7.81430  -3.75480   0.11900 H   0  0  0  0  0  0
   7.93600  -5.90710   0.26970 C   0  0  0  0  0  0
   8.93610  -6.14910  -0.59520 C   0  0  0  0  0  0
  -1.17280  -0.97720   0.25530 O   0  0  0  0  0  0
  -2.55850  -0.78080  -0.08000 C   0  0  0  0  0  0
  -3.42450  -1.65930   0.83210 C   0  0  0  0  0  0
  -3.09570  -1.50980   1.86820 H   0  0  0  0  0  0
  -3.19430  -3.07300   0.60260 O   0  0  0  0  0  0
  -4.90710  -1.26760   0.75010 C   0  0  0  0  0  0
  -5.31690  -1.42480  -0.25020 H   0  0  0  0  0  0
  -5.00100  -0.21000   1.01810 H   0  0  0  0  0  0
  -5.66040  -2.05760   1.69530 O   0  0  0  0  0  0
  -3.56040  -3.62660  -0.58130 C   0  0  0  0  0  0
  -4.10030  -3.03410  -1.50430 O   0  0  0  0  0  0
  -3.22920  -5.09480  -0.59290 C   0  0  0  0  0  0
  -2.41070  -5.27990   0.11320 H   0  0  0  0  0  0
  -2.84280  -5.35200  -1.58580 H   0  0  0  0  0  0
  -4.45590  -5.93050  -0.24680 C   0  0  0  0  0  0
  -5.18240  -5.87240  -1.06660 H   0  0  0  0  0  0
  -4.95230  -5.52170   0.64220 H   0  0  0  0  0  0
  -4.06340  -7.38450   0.01070 C   0  0  0  0  0  0
  -3.39000  -7.42570   0.87580 H   0  0  0  0  0  0
  -3.50480  -7.77430  -0.84930 H   0  0  0  0  0  0
  -5.28100  -8.27480   0.26480 C   0  0  0  0  0  0
  -5.88410  -8.33870  -0.64870 H   0  0  0  0  0  0
  -5.91450  -7.83260   1.04300 H   0  0  0  0  0  0
  -4.83980  -9.67200   0.70350 C   0  0  0  0  0  0
  -4.32620  -9.59940   1.67020 H   0  0  0  0  0  0
  -4.11420 -10.07210  -0.01570 H   0  0  0  0  0  0
  -6.01700 -10.64240   0.81700 C   0  0  0  0  0  0
  -6.45380 -10.79880  -0.17740 H   0  0  0  0  0  0
  -6.80120 -10.20840   1.44970 H   0  0  0  0  0  0
  -5.55790 -11.97870   1.41180 C   0  0  0  0  0  0
  -5.28490 -11.83010   2.46340 H   0  0  0  0  0  0
  -4.65460 -12.30300   0.88690 H   0  0  0  0  0  0
  -6.63580 -13.02400   1.34050 C   0  0  0  0  0  0
  -6.50020 -14.29820   0.93520 C   0  0  0  0  0  0
  -5.23250 -14.98320   0.50360 C   0  0  0  0  0  0
  -7.39680 -14.91770   0.91760 H   0  0  0  0  0  0
  -7.00520  -1.91410   1.83650 C   0  0  0  0  0  0
  -7.63370  -2.65230   2.58740 O   0  0  0  0  0  0
  -7.65400  -0.80640   1.03300 C   0  0  0  0  0  0
  -9.12300  -0.58630   1.40200 C   0  0  0  0  0  0
  -9.20950  -0.40310   2.48010 H   0  0  0  0  0  0
  -9.70510  -1.49000   1.18440 H   0  0  0  0  0  0
  -9.69290   0.60210   0.62520 C   0  0  0  0  0  0
  -9.66780   0.38210  -0.44910 H   0  0  0  0  0  0
  -9.05540   1.48040   0.78730 H   0  0  0  0  0  0
 -11.12260   0.93940   1.04870 C   0  0  0  0  0  0
 -11.14470   1.15500   2.12370 H   0  0  0  0  0  0
 -11.77710   0.07680   0.87580 H   0  0  0  0  0  0
 -11.64300   2.14890   0.26840 C   0  0  0  0  0  0
 -11.69390   1.90110  -0.79880 H   0  0  0  0  0  0
 -10.93610   2.98160   0.37180 H   0  0  0  0  0  0
 -13.01950   2.59740   0.76130 C   0  0  0  0  0  0
 -12.95590   2.86190   1.82450 H   0  0  0  0  0  0
 -13.73120   1.76650   0.67800 H   0  0  0  0  0  0
 -13.52610   3.79830  -0.04480 C   0  0  0  0  0  0
 -13.69500   3.49570  -1.08520 H   0  0  0  0  0  0
 -12.75140   4.56980  -0.06430 H   0  0  0  0  0  0
 -14.81850   4.32260   0.51490 C   0  0  0  0  0  0
 -15.07750   5.56330   0.96060 C   0  0  0  0  0  0
 -14.14660   6.74430   0.98680 C   0  0  0  0  0  0
 -15.62790   3.59400   0.56510 H   0  0  0  0  0  0
 -16.07420   5.74940   1.36130 H   0  0  0  0  0  0
  -7.58180  -1.05560  -0.03060 H   0  0  0  0  0  0
  -7.11850   0.12700   1.23270 H   0  0  0  0  0  0
  -2.69990  -1.02860  -1.13630 H   0  0  0  0  0  0
  -2.81350   0.27380   0.08180 H   0  0  0  0  0  0
   9.67690  -5.17400  -1.47200 C   0  0  0  0  0  0
   7.52930  -6.76060   0.81250 H   0  0  0  0  0  0
   9.24820  -7.18820  -0.70170 H   0  0  0  0  0  0
  -5.06500 -16.34470   1.18670 C   0  0  0  0  0  0
  -3.69860 -16.95380   0.86350 C   0  0  0  0  0  0
  -3.55730 -18.36570   1.43420 C   0  0  0  0  0  0
  -2.15130 -18.91810   1.19090 C   0  0  0  0  0  0
  -1.41930 -18.29380   1.71800 H   0  0  0  0  0  0
  -1.91230 -18.86210   0.12180 H   0  0  0  0  0  0
  -2.02630 -20.36710   1.66330 C   0  0  0  0  0  0
  -2.73370 -20.99450   1.10750 H   0  0  0  0  0  0
  -2.29680 -20.43610   2.72390 H   0  0  0  0  0  0
  -0.60500 -20.89330   1.46240 C   0  0  0  0  0  0
   0.09890 -20.29320   2.05090 H   0  0  0  0  0  0
  -0.31450 -20.79390   0.41000 H   0  0  0  0  0  0
  -0.48500 -22.35130   1.87570 C   0  0  0  0  0  0
 -13.23540   6.55500   0.41250 H   0  0  0  0  0  0
 -13.84260   6.92070   2.02550 H   0  0  0  0  0  0
 -14.82630   8.00350   0.43820 C   0  0  0  0  0  0
 -15.69230   8.25560   1.06350 H   0  0  0  0  0  0
 -15.20520   7.81450  -0.57420 H   0  0  0  0  0  0
 -13.85640   9.18710   0.40450 C   0  0  0  0  0  0
 -13.03340   8.96400  -0.28550 H   0  0  0  0  0  0
 -13.41480   9.33110   1.39820 H   0  0  0  0  0  0
 -14.55830  10.47530  -0.02940 C   0  0  0  0  0  0
 -15.35270  10.71600   0.68760 H   0  0  0  0  0  0
 -15.03700  10.32690  -1.00490 H   0  0  0  0  0  0
 -13.57280  11.64240  -0.11630 C   0  0  0  0  0  0
 -12.81240  11.42220  -0.87560 H   0  0  0  0  0  0
 -13.04980  11.75590   0.84110 H   0  0  0  0  0  0
 -14.28470  12.95070  -0.46480 C   0  0  0  0  0  0
 -15.02680  13.18030   0.30960 H   0  0  0  0  0  0
 -14.82900  12.83530  -1.40990 H   0  0  0  0  0  0
 -13.29290  14.10800  -0.58340 C   0  0  0  0  0  0
 -12.56990  13.89690  -1.37990 H   0  0  0  0  0  0
 -12.72670  14.21220   0.34940 H   0  0  0  0  0  0
 -13.99960  15.41990  -0.88550 C   0  0  0  0  0  0
 -14.69910  15.68120  -0.08500 H   0  0  0  0  0  0
 -14.55870  15.35820  -1.82450 H   0  0  0  0  0  0
 -13.27020  16.23090  -0.97650 H   0  0  0  0  0  0
  -1.14330 -22.98450   1.27240 H   0  0  0  0  0  0
  -0.74990 -22.48450   2.92940 H   0  0  0  0  0  0
   0.54280 -22.70100   1.73650 H   0  0  0  0  0  0
  -7.62850 -12.69720   1.65000 H   0  0  0  0  0  0
   9.36730  -4.14620  -1.27540 H   0  0  0  0  0  0
   9.41560  -5.38960  -2.51470 H   0  0  0  0  0  0
  11.16520  -5.33640  -1.31920 C   0  0  0  0  0  0
  12.08980  -4.38720  -1.09430 C   0  0  0  0  0  0
  11.87770  -2.90380  -0.97750 C   0  0  0  0  0  0
  11.91450  -2.63110   0.08370 H   0  0  0  0  0  0
  10.89620  -2.60740  -1.36000 H   0  0  0  0  0  0
  12.96410  -2.13210  -1.73670 C   0  0  0  0  0  0
  11.52710  -6.36110  -1.40480 H   0  0  0  0  0  0
  13.12190  -4.72030  -0.98300 H   0  0  0  0  0  0
  12.96380  -2.42880  -2.79330 H   0  0  0  0  0  0
  13.95090  -2.39190  -1.33210 H   0  0  0  0  0  0
  12.75630  -0.61950  -1.63240 C   0  0  0  0  0  0
  12.69850  -0.32680  -0.57710 H   0  0  0  0  0  0
  11.80010  -0.34900  -2.09640 H   0  0  0  0  0  0
  13.89300   0.14620  -2.31080 C   0  0  0  0  0  0
  13.96990  -0.15160  -3.36290 H   0  0  0  0  0  0
  14.84690  -0.10530  -1.83220 H   0  0  0  0  0  0
  13.67900   1.64950  -2.23160 C   0  0  0  0  0  0
  13.61550   1.98320  -1.19100 H   0  0  0  0  0  0
  12.75650   1.94130  -2.74350 H   0  0  0  0  0  0
  14.51230   2.17670  -2.70690 H   0  0  0  0  0  0
  -4.35240 -14.37160   0.72220 H   0  0  0  0  0  0
  -5.26570 -15.12460  -0.58320 H   0  0  0  0  0  0
  -5.86190 -17.02250   0.85570 H   0  0  0  0  0  0
  -5.16520 -16.23630   2.27410 H   0  0  0  0  0  0
  -2.91020 -16.31030   1.27330 H   0  0  0  0  0  0
  -3.55560 -16.98590  -0.22360 H   0  0  0  0  0  0
  -4.30070 -19.02300   0.96710 H   0  0  0  0  0  0
  -3.76470 -18.35530   2.51100 H   0  0  0  0  0  0
  1  2  1  0  0  0
  1  3  2  0  0  0
  4  2  1  0  0  0
  5  2  1  0  0  0
  6  2  1  0  0  0
  7  4  1  0  0  0
  8  4  1  0  0  0
  9  4  1  0  0  0
 10  9  1  0  0  0
 11  9  1  0  0  0
 12  9  1  0  0  0
 13 12  1  0  0  0
 14 12  1  0  0  0
 15 12  1  0  0  0
 16 15  1  0  0  0
 17 15  1  0  0  0
 18 15  1  0  0  0
 19 18  1  0  0  0
 20 18  1  0  0  0
 21 18  1  0  0  0
 22 21  1  0  0  0
 23 21  1  0  0  0
 24 21  1  0  0  0
 25 24  2  0  0  0
 26  1  1  0  0  0
 27 26  1  0  0  0
 28 27  1  0  0  0
 28 29  1  0  0  0
 30 28  1  0  0  0
 31 28  1  0  0  0
 32 31  1  0  0  0
 33 31  1  0  0  0
 34 31  1  0  0  0
 35 30  1  0  0  0
 36 35  2  0  0  0
 37 35  1  0  0  0
 38 37  1  0  0  0
 39 37  1  0  0  0
 40 37  1  0  0  0
 41 40  1  0  0  0
 42 40  1  0  0  0
 43 40  1  0  0  0
 44 43  1  0  0  0
 45 43  1  0  0  0
 46 43  1  0  0  0
 47 46  1  0  0  0
 48 46  1  0  0  0
 49 46  1  0  0  0
 50 49  1  0  0  0
 51 49  1  0  0  0
 52 49  1  0  0  0
 53 52  1  0  0  0
 54 52  1  0  0  0
 55 52  1  0  0  0
 56 55  1  0  0  0
 57 55  1  0  0  0
 58 55  1  0  0  0
 59 58  2  0  0  0
 60 59  1  0  0  0
 61 59  1  0  0  0
 62 34  1  0  0  0
 63 62  2  0  0  0
 64 62  1  0  0  0
 65 64  1  0  0  0
 66 65  1  0  0  0
 67 65  1  0  0  0
 68 65  1  0  0  0
 69 68  1  0  0  0
 70 68  1  0  0  0
 71 68  1  0  0  0
 72 71  1  0  0  0
 73 71  1  0  0  0
 74 71  1  0  0  0
 75 74  1  0  0  0
 76 74  1  0  0  0
 77 74  1  0  0  0
 78 77  1  0  0  0
 79 77  1  0  0  0
 80 77  1  0  0  0
 81 80  1  0  0  0
 82 80  1  0  0  0
 83 80  1  0  0  0
 84 83  2  0  0  0
 85 84  1  0  0  0
 86 83  1  0  0  0
 87 84  1  0  0  0
 88 64  1  0  0  0
 89 64  1  0  0  0
 90 27  1  0  0  0
 91 27  1  0  0  0
 92 25  1  0  0  0
 93 24  1  0  0  0
 94 25  1  0  0  0
 95 60  1  0  0  0
 96 95  1  0  0  0
 97 96  1  0  0  0
 98 97  1  0  0  0
 99 98  1  0  0  0
100 98  1  0  0  0
101 98  1  0  0  0
102101  1  0  0  0
103101  1  0  0  0
104101  1  0  0  0
105104  1  0  0  0
106104  1  0  0  0
107104  1  0  0  0
108 85  1  0  0  0
109 85  1  0  0  0
110 85  1  0  0  0
111110  1  0  0  0
112110  1  0  0  0
113110  1  0  0  0
114113  1  0  0  0
115113  1  0  0  0
116113  1  0  0  0
117116  1  0  0  0
118116  1  0  0  0
119116  1  0  0  0
120119  1  0  0  0
121119  1  0  0  0
122119  1  0  0  0
123122  1  0  0  0
124122  1  0  0  0
125122  1  0  0  0
126125  1  0  0  0
127125  1  0  0  0
128125  1  0  0  0
129128  1  0  0  0
130128  1  0  0  0
131128  1  0  0  0
132107  1  0  0  0
133107  1  0  0  0
134107  1  0  0  0
135 58  1  0  0  0
136 92  1  0  0  0
137 92  1  0  0  0
138 92  1  0  0  0
139138  2  0  0  0
140139  1  0  0  0
141140  1  0  0  0
142140  1  0  0  0
143140  1  0  0  0
144138  1  0  0  0
145139  1  0  0  0
146143  1  0  0  0
147143  1  0  0  0
148143  1  0  0  0
149148  1  0  0  0
150148  1  0  0  0
151148  1  0  0  0
152151  1  0  0  0
153151  1  0  0  0
154151  1  0  0  0
155154  1  0  0  0
156154  1  0  0  0
157154  1  0  0  0
158 60  1  0  0  0
159 60  1  0  0  0
160 95  1  0  0  0
161 95  1  0  0  0
162 96  1  0  0  0
163 96  1  0  0  0
164 97  1  0  0  0
165 97  1  0  0  0
M  END
