
 OpenBabel04301410313D

161160  0  0  1  0  0  0  0  0999 V2000
   -0.0135   -0.2965    0.4601 C   0  0  0  0  0  0  0  0  0  0  0  0
   -0.7045    0.8080   -0.2959 C   0  0  0  0  0  0  0  0  0  0  0  0
    0.7798   -0.0962    1.3713 O   0  0  0  0  0  0  0  0  0  0  0  0
   -2.2070    0.5893   -0.4560 C   0  0  0  0  0  0  0  0  0  0  0  0
   -0.2161    0.9141   -1.2710 H   0  0  0  0  0  0  0  0  0  0  0  0
   -0.5289    1.7368    0.2608 H   0  0  0  0  0  0  0  0  0  0  0  0
   -2.6553    0.3360    0.5123 H   0  0  0  0  0  0  0  0  0  0  0  0
   -2.3911   -0.2610   -1.1238 H   0  0  0  0  0  0  0  0  0  0  0  0
   -2.8658    1.8469   -1.0236 C   0  0  0  0  0  0  0  0  0  0  0  0
   -2.3864    2.1103   -1.9747 H   0  0  0  0  0  0  0  0  0  0  0  0
   -2.6951    2.6856   -0.3369 H   0  0  0  0  0  0  0  0  0  0  0  0
   -4.3699    1.6751   -1.2442 C   0  0  0  0  0  0  0  0  0  0  0  0
   -4.8596    1.4255   -0.2956 H   0  0  0  0  0  0  0  0  0  0  0  0
   -4.5507    0.8433   -1.9353 H   0  0  0  0  0  0  0  0  0  0  0  0
   -4.9672    2.9618   -1.8174 C   0  0  0  0  0  0  0  0  0  0  0  0
   -4.4734    3.1971   -2.7684 H   0  0  0  0  0  0  0  0  0  0  0  0
   -4.7583    3.7948   -1.1342 H   0  0  0  0  0  0  0  0  0  0  0  0
   -6.4781    2.8632   -2.0381 C   0  0  0  0  0  0  0  0  0  0  0  0
   -6.9811    2.7116   -1.0751 H   0  0  0  0  0  0  0  0  0  0  0  0
   -6.7070    1.9923   -2.6646 H   0  0  0  0  0  0  0  0  0  0  0  0
   -6.9983    4.1369   -2.7158 C   0  0  0  0  0  0  0  0  0  0  0  0
   -6.5678    4.2103   -3.7215 H   0  0  0  0  0  0  0  0  0  0  0  0
   -6.6459    5.0021   -2.1432 H   0  0  0  0  0  0  0  0  0  0  0  0
   -8.4974    4.1573   -2.8350 C   0  0  0  0  0  0  0  0  0  0  0  0
   -0.3063   -1.5213   -0.0573 O   0  0  0  0  0  0  0  0  0  0  0  0
    0.4053   -2.5945    0.5833 C   0  0  0  0  0  0  0  0  0  0  0  0
    0.1232   -3.9115   -0.1512 C   0  0  2  0  0  0  0  0  0  0  0  0
    0.2825   -3.7530   -1.2250 H   0  0  0  0  0  0  0  0  0  0  0  0
   -1.2713   -4.2991   -0.0648 O   0  0  0  0  0  0  0  0  0  0  0  0
    1.0863   -5.0147    0.3119 C   0  0  0  0  0  0  0  0  0  0  0  0
    0.9946   -5.2022    1.3844 H   0  0  0  0  0  0  0  0  0  0  0  0
    2.1102   -4.6949    0.0900 H   0  0  0  0  0  0  0  0  0  0  0  0
    0.8121   -6.2359   -0.4063 O   0  0  0  0  0  0  0  0  0  0  0  0
   -1.7896   -4.6706    1.1333 C   0  0  0  0  0  0  0  0  0  0  0  0
   -1.1791   -4.6992    2.1920 O   0  0  0  0  0  0  0  0  0  0  0  0
   -3.2285   -5.0813    0.9719 C   0  0  0  0  0  0  0  0  0  0  0  0
   -3.6501   -4.5653    0.1010 H   0  0  0  0  0  0  0  0  0  0  0  0
   -3.7880   -4.7224    1.8433 H   0  0  0  0  0  0  0  0  0  0  0  0
   -3.3459   -6.5947    0.8275 C   0  0  0  0  0  0  0  0  0  0  0  0
   -3.0686   -7.0773    1.7727 H   0  0  0  0  0  0  0  0  0  0  0  0
   -2.6385   -6.9565    0.0708 H   0  0  0  0  0  0  0  0  0  0  0  0
   -4.7670   -6.9889    0.4295 C   0  0  0  0  0  0  0  0  0  0  0  0
   -5.0037   -6.5376   -0.5422 H   0  0  0  0  0  0  0  0  0  0  0  0
   -5.4805   -6.5788    1.1551 H   0  0  0  0  0  0  0  0  0  0  0  0
   -4.9496   -8.5062    0.3473 C   0  0  0  0  0  0  0  0  0  0  0  0
   -4.8472   -8.9437    1.3475 H   0  0  0  0  0  0  0  0  0  0  0  0
   -4.1673   -8.9456   -0.2831 H   0  0  0  0  0  0  0  0  0  0  0  0
   -6.3217   -8.8414   -0.2383 C   0  0  0  0  0  0  0  0  0  0  0  0
   -6.3712   -8.4666   -1.2683 H   0  0  0  0  0  0  0  0  0  0  0  0
   -7.1011   -8.3178    0.3297 H   0  0  0  0  0  0  0  0  0  0  0  0
   -6.6205  -10.3423   -0.2237 C   0  0  0  0  0  0  0  0  0  0  0  0
   -6.7111  -10.6850    0.8145 H   0  0  0  0  0  0  0  0  0  0  0  0
   -5.7898  -10.8970   -0.6772 H   0  0  0  0  0  0  0  0  0  0  0  0
   -7.9127  -10.6293   -0.9979 C   0  0  0  0  0  0  0  0  0  0  0  0
   -7.7383  -10.4461   -2.0649 H   0  0  0  0  0  0  0  0  0  0  0  0
   -8.6785   -9.9209   -0.6643 H   0  0  0  0  0  0  0  0  0  0  0  0
   -8.3915  -12.0444   -0.8265 C   0  0  0  0  0  0  0  0  0  0  0  0
   -9.6745  -12.4314   -0.7145 C   0  0  0  0  0  0  0  0  0  0  0  0
  -10.8766  -11.5305   -0.7975 C   0  0  0  0  0  0  0  0  0  0  0  0
   -9.8755  -13.4903   -0.5569 H   0  0  0  0  0  0  0  0  0  0  0  0
    1.4953   -7.3822   -0.1372 C   0  0  0  0  0  0  0  0  0  0  0  0
    1.1670   -8.4419   -0.6592 O   0  0  0  0  0  0  0  0  0  0  0  0
    2.6705   -7.2541    0.8091 C   0  0  0  0  0  0  0  0  0  0  0  0
    3.5028   -8.5334    0.9226 C   0  0  0  0  0  0  0  0  0  0  0  0
    3.8154   -8.8667   -0.0744 H   0  0  0  0  0  0  0  0  0  0  0  0
    2.8965   -9.3384    1.3549 H   0  0  0  0  0  0  0  0  0  0  0  0
    4.7319   -8.2726    1.7951 C   0  0  0  0  0  0  0  0  0  0  0  0
    4.4076   -7.9689    2.7983 H   0  0  0  0  0  0  0  0  0  0  0  0
    5.2983   -7.4313    1.3755 H   0  0  0  0  0  0  0  0  0  0  0  0
    5.6539   -9.4870    1.9027 C   0  0  0  0  0  0  0  0  0  0  0  0
    5.9823   -9.7922    0.9023 H   0  0  0  0  0  0  0  0  0  0  0  0
    5.1106  -10.3320    2.3418 H   0  0  0  0  0  0  0  0  0  0  0  0
    6.8687   -9.1443    2.7682 C   0  0  0  0  0  0  0  0  0  0  0  0
    6.5333   -8.8961    3.7827 H   0  0  0  0  0  0  0  0  0  0  0  0
    7.3593   -8.2488    2.3658 H   0  0  0  0  0  0  0  0  0  0  0  0
    7.8874  -10.2832    2.8280 C   0  0  0  0  0  0  0  0  0  0  0  0
    8.2577  -10.4950    1.8170 H   0  0  0  0  0  0  0  0  0  0  0  0
    7.4036  -11.1972    3.1940 H   0  0  0  0  0  0  0  0  0  0  0  0
    9.0542   -9.9083    3.7502 C   0  0  0  0  0  0  0  0  0  0  0  0
    8.6907   -9.8325    4.7819 H   0  0  0  0  0  0  0  0  0  0  0  0
    9.4207   -8.9176    3.4641 H   0  0  0  0  0  0  0  0  0  0  0  0
   10.1570  -10.9286    3.7045 C   0  0  0  0  0  0  0  0  0  0  0  0
   11.4716  -10.6866    3.5600 C   0  0  0  0  0  0  0  0  0  0  0  0
   12.1318   -9.3386    3.4611 C   0  0  0  0  0  0  0  0  0  0  0  0
    9.8412  -11.9680    3.7895 H   0  0  0  0  0  0  0  0  0  0  0  0
   12.1383  -11.5469    3.5095 H   0  0  0  0  0  0  0  0  0  0  0  0
    2.2955   -6.9859    1.8020 H   0  0  0  0  0  0  0  0  0  0  0  0
    3.3262   -6.4617    0.4336 H   0  0  0  0  0  0  0  0  0  0  0  0
    0.0901   -2.6426    1.6303 H   0  0  0  0  0  0  0  0  0  0  0  0
    1.4805   -2.3809    0.5395 H   0  0  0  0  0  0  0  0  0  0  0  0
  -10.6268  -10.5991   -1.3171 H   0  0  0  0  0  0  0  0  0  0  0  0
  -11.1864  -11.2670    0.2206 H   0  0  0  0  0  0  0  0  0  0  0  0
  -12.0548  -12.1867   -1.5263 C   0  0  0  0  0  0  0  0  0  0  0  0
  -12.4271  -13.0324   -0.9348 H   0  0  0  0  0  0  0  0  0  0  0  0
  -11.7292  -12.5871   -2.4945 H   0  0  0  0  0  0  0  0  0  0  0  0
  -13.1772  -11.1695   -1.7478 C   0  0  0  0  0  0  0  0  0  0  0  0
  -12.8215  -10.3844   -2.4268 H   0  0  0  0  0  0  0  0  0  0  0  0
  -13.4253  -10.6823   -0.7968 H   0  0  0  0  0  0  0  0  0  0  0  0
  -14.4382  -11.8126   -2.3259 C   0  0  0  0  0  0  0  0  0  0  0  0
  -14.8278  -12.5527   -1.6166 H   0  0  0  0  0  0  0  0  0  0  0  0
  -14.1960  -12.3460   -3.2529 H   0  0  0  0  0  0  0  0  0  0  0  0
  -15.5045  -10.7512   -2.6071 C   0  0  0  0  0  0  0  0  0  0  0  0
  -15.1334  -10.0576   -3.3717 H   0  0  0  0  0  0  0  0  0  0  0  0
  -15.6854  -10.1622   -1.6996 H   0  0  0  0  0  0  0  0  0  0  0  0
  -16.8199  -11.3744   -3.0747 C   0  0  0  0  0  0  0  0  0  0  0  0
  -17.2017  -12.0483   -2.2982 H   0  0  0  0  0  0  0  0  0  0  0  0
  -16.6457  -11.9795   -3.9724 H   0  0  0  0  0  0  0  0  0  0  0  0
  -17.8611  -10.2956   -3.3758 C   0  0  0  0  0  0  0  0  0  0  0  0
  -17.4973   -9.6430   -4.1782 H   0  0  0  0  0  0  0  0  0  0  0  0
  -18.0137   -9.6662   -2.4911 H   0  0  0  0  0  0  0  0  0  0  0  0
  -19.1926  -10.9008   -3.7897 C   0  0  0  0  0  0  0  0  0  0  0  0
   -7.6205  -12.8126   -0.7825 H   0  0  0  0  0  0  0  0  0  0  0  0
   -8.9285    5.4283   -3.5048 C   0  0  0  0  0  0  0  0  0  0  0  0
  -10.4237    5.4487   -3.6236 C   0  0  0  0  0  0  0  0  0  0  0  0
  -10.8549    6.7196   -4.2935 C   0  0  0  0  0  0  0  0  0  0  0  0
  -10.4066    6.7759   -5.2965 H   0  0  0  0  0  0  0  0  0  0  0  0
  -10.5229    7.5806   -3.6947 H   0  0  0  0  0  0  0  0  0  0  0  0
  -12.3500    6.7400   -4.4123 C   0  0  0  0  0  0  0  0  0  0  0  0
  -12.7984    6.6838   -3.4094 H   0  0  0  0  0  0  0  0  0  0  0  0
  -12.6821    5.8791   -5.0111 H   0  0  0  0  0  0  0  0  0  0  0  0
  -12.7812    8.0109   -5.0822 C   0  0  0  0  0  0  0  0  0  0  0  0
  -12.3329    8.0672   -6.0851 H   0  0  0  0  0  0  0  0  0  0  0  0
  -12.4493    8.8719   -4.4834 H   0  0  0  0  0  0  0  0  0  0  0  0
  -14.2764    8.0313   -5.2010 C   0  0  0  0  0  0  0  0  0  0  0  0
  -14.7247    7.9751   -4.1981 H   0  0  0  0  0  0  0  0  0  0  0  0
  -14.6084    7.1704   -5.7998 H   0  0  0  0  0  0  0  0  0  0  0  0
  -14.7075    9.3023   -5.8709 C   0  0  0  0  0  0  0  0  0  0  0  0
  -14.2593    9.3585   -6.8738 H   0  0  0  0  0  0  0  0  0  0  0  0
  -14.3756   10.1632   -5.2721 H   0  0  0  0  0  0  0  0  0  0  0  0
  -15.8040    9.3172   -5.9580 H   0  0  0  0  0  0  0  0  0  0  0  0
   11.9247   -8.7609    4.3740 H   0  0  0  0  0  0  0  0  0  0  0  0
   11.7354   -8.7993    2.5881 H   0  0  0  0  0  0  0  0  0  0  0  0
   13.6132   -9.5174    3.3079 C   0  0  0  0  0  0  0  0  0  0  0  0
   14.2716   -8.1732    3.2092 C   0  0  0  0  0  0  0  0  0  0  0  0
   13.4417   -6.9253    3.2704 C   0  0  0  0  0  0  0  0  0  0  0  0
   12.9049   -6.8885    4.2298 H   0  0  0  0  0  0  0  0  0  0  0  0
   12.7156   -6.9268    2.4440 H   0  0  0  0  0  0  0  0  0  0  0  0
   14.3335   -5.7252    3.1501 C   0  0  0  0  0  0  0  0  0  0  0  0
   14.1359  -10.4847    3.2732 H   0  0  0  0  0  0  0  0  0  0  0  0
   15.3631   -8.1027    3.0920 H   0  0  0  0  0  0  0  0  0  0  0  0
   14.8702   -5.7619    2.1906 H   0  0  0  0  0  0  0  0  0  0  0  0
   15.0595   -5.7235    3.9764 H   0  0  0  0  0  0  0  0  0  0  0  0
   13.5035   -4.4772    3.2112 C   0  0  0  0  0  0  0  0  0  0  0  0
   12.9668   -4.4404    4.1707 H   0  0  0  0  0  0  0  0  0  0  0  0
   12.7775   -4.4788    2.3849 H   0  0  0  0  0  0  0  0  0  0  0  0
   14.3954   -3.2771    3.0909 C   0  0  0  0  0  0  0  0  0  0  0  0
   14.9321   -3.3138    2.1314 H   0  0  0  0  0  0  0  0  0  0  0  0
   15.1214   -3.2755    3.9173 H   0  0  0  0  0  0  0  0  0  0  0  0
   13.5654   -2.0292    3.1521 C   0  0  0  0  0  0  0  0  0  0  0  0
   13.0287   -1.9924    4.1116 H   0  0  0  0  0  0  0  0  0  0  0  0
   12.8394   -2.0307    2.3257 H   0  0  0  0  0  0  0  0  0  0  0  0
   14.2194   -1.1491    3.0639 H   0  0  0  0  0  0  0  0  0  0  0  0
  -10.9110    5.3187   -2.6460 H   0  0  0  0  0  0  0  0  0  0  0  0
  -10.8016    4.5616   -4.1531 H   0  0  0  0  0  0  0  0  0  0  0  0
   -8.9847    4.0274   -1.8574 H   0  0  0  0  0  0  0  0  0  0  0  0
   -8.8752    3.2703   -3.3644 H   0  0  0  0  0  0  0  0  0  0  0  0
   -8.4412    5.5582   -4.4824 H   0  0  0  0  0  0  0  0  0  0  0  0
   -8.5507    6.3154   -2.9754 H   0  0  0  0  0  0  0  0  0  0  0  0
  -19.0514  -11.5168   -4.6532 H   0  0  0  0  0  0  0  0  0  0  0  0
  -19.8844  -10.1175   -4.0196 H   0  0  0  0  0  0  0  0  0  0  0  0
  -19.5794  -11.4942   -2.9877 H   0  0  0  0  0  0  0  0  0  0  0  0
  1  2  1  0  0  0  0
  1  3  2  0  0  0  0
  4  2  1  0  0  0  0
  5  2  1  0  0  0  0
  6  2  1  0  0  0  0
  7  4  1  0  0  0  0
  8  4  1  0  0  0  0
  9  4  1  0  0  0  0
 10  9  1  0  0  0  0
 11  9  1  0  0  0  0
 12  9  1  0  0  0  0
 13 12  1  0  0  0  0
 14 12  1  0  0  0  0
 15 12  1  0  0  0  0
 16 15  1  0  0  0  0
 17 15  1  0  0  0  0
 18 15  1  0  0  0  0
 19 18  1  0  0  0  0
 20 18  1  0  0  0  0
 21 18  1  0  0  0  0
 22 21  1  0  0  0  0
 23 21  1  0  0  0  0
 24 21  1  0  0  0  0
 25  1  1  0  0  0  0
 26 25  1  0  0  0  0
 27 26  1  0  0  0  0
 27 28  1  6  0  0  0
 29 27  1  0  0  0  0
 30 27  1  0  0  0  0
 31 30  1  0  0  0  0
 32 30  1  0  0  0  0
 33 30  1  0  0  0  0
 34 29  1  0  0  0  0
 35 34  2  0  0  0  0
 36 34  1  0  0  0  0
 37 36  1  0  0  0  0
 38 36  1  0  0  0  0
 39 36  1  0  0  0  0
 40 39  1  0  0  0  0
 41 39  1  0  0  0  0
 42 39  1  0  0  0  0
 43 42  1  0  0  0  0
 44 42  1  0  0  0  0
 45 42  1  0  0  0  0
 46 45  1  0  0  0  0
 47 45  1  0  0  0  0
 48 45  1  0  0  0  0
 49 48  1  0  0  0  0
 50 48  1  0  0  0  0
 51 48  1  0  0  0  0
 52 51  1  0  0  0  0
 53 51  1  0  0  0  0
 54 51  1  0  0  0  0
 55 54  1  0  0  0  0
 56 54  1  0  0  0  0
 57 54  1  0  0  0  0
 58 57  2  0  0  0  0
 59 58  1  0  0  0  0
 60 58  1  0  0  0  0
 61 33  1  0  0  0  0
 62 61  2  0  0  0  0
 63 61  1  0  0  0  0
 64 63  1  0  0  0  0
 65 64  1  0  0  0  0
 66 64  1  0  0  0  0
 67 64  1  0  0  0  0
 68 67  1  0  0  0  0
 69 67  1  0  0  0  0
 70 67  1  0  0  0  0
 71 70  1  0  0  0  0
 72 70  1  0  0  0  0
 73 70  1  0  0  0  0
 74 73  1  0  0  0  0
 75 73  1  0  0  0  0
 76 73  1  0  0  0  0
 77 76  1  0  0  0  0
 78 76  1  0  0  0  0
 79 76  1  0  0  0  0
 80 79  1  0  0  0  0
 81 79  1  0  0  0  0
 82 79  1  0  0  0  0
 83 82  2  0  0  0  0
 84 83  1  0  0  0  0
 85 82  1  0  0  0  0
 86 83  1  0  0  0  0
 87 63  1  0  0  0  0
 88 63  1  0  0  0  0
 89 26  1  0  0  0  0
 90 26  1  0  0  0  0
 91 59  1  0  0  0  0
 92 59  1  0  0  0  0
 93 59  1  0  0  0  0
 94 93  1  0  0  0  0
 95 93  1  0  0  0  0
 96 93  1  0  0  0  0
 97 96  1  0  0  0  0
 98 96  1  0  0  0  0
 99 96  1  0  0  0  0
100 99  1  0  0  0  0
101 99  1  0  0  0  0
102 99  1  0  0  0  0
103102  1  0  0  0  0
104102  1  0  0  0  0
105102  1  0  0  0  0
106105  1  0  0  0  0
107105  1  0  0  0  0
108105  1  0  0  0  0
109108  1  0  0  0  0
110108  1  0  0  0  0
111108  1  0  0  0  0
111159  1  0  0  0  0
111160  1  0  0  0  0
111161  1  0  0  0  0
112 57  1  0  0  0  0
113 24  1  0  0  0  0
114113  1  0  0  0  0
115114  1  0  0  0  0
116115  1  0  0  0  0
117115  1  0  0  0  0
118115  1  0  0  0  0
119118  1  0  0  0  0
120118  1  0  0  0  0
121118  1  0  0  0  0
122121  1  0  0  0  0
123121  1  0  0  0  0
124121  1  0  0  0  0
125124  1  0  0  0  0
126124  1  0  0  0  0
127124  1  0  0  0  0
128127  1  0  0  0  0
129127  1  0  0  0  0
130127  1  0  0  0  0
131 84  1  0  0  0  0
132 84  1  0  0  0  0
133 84  1  0  0  0  0
134133  2  0  0  0  0
135134  1  0  0  0  0
136135  1  0  0  0  0
137135  1  0  0  0  0
138135  1  0  0  0  0
139133  1  0  0  0  0
140134  1  0  0  0  0
141138  1  0  0  0  0
142138  1  0  0  0  0
143138  1  0  0  0  0
144143  1  0  0  0  0
145143  1  0  0  0  0
146143  1  0  0  0  0
147146  1  0  0  0  0
148146  1  0  0  0  0
149146  1  0  0  0  0
150149  1  0  0  0  0
151149  1  0  0  0  0
152149  1  0  0  0  0
153114  1  0  0  0  0
154114  1  0  0  0  0
155 24  1  0  0  0  0
156 24  1  0  0  0  0
157113  1  0  0  0  0
158113  1  0  0  0  0
M  END
