file:/home/renata/glycerol/GLYCEROL_1,2-DI-LINOLEATE-3-OLEATE.mol
__Jmol-12_04241414553D 1   1.00000     0.00000     0
Jmol version 12.3.28  2012-05-30 15:29 EXTRACT: ({0:162})
163162  0  0  0  0              1 V2000
   0.49936  -0.04642   0.38424 C   0  0  0  0  0  0
  -0.93915  -0.34744   0.05643 C   0  0  0  0  0  0
   0.85812   0.96314   0.97751 O   0  0  0  0  0  0
  -1.35390  -1.78173   0.37746 C   0  0  0  0  0  0
  -1.10443  -0.11856  -1.00228 H   0  0  0  0  0  0
  -1.55309   0.34832   0.64173 H   0  0  0  0  0  0
  -1.03876  -2.04647   1.39399 H   0  0  0  0  0  0
  -0.85013  -2.47767  -0.30405 H   0  0  0  0  0  0
  -2.86930  -1.92955   0.24508 C   0  0  0  0  0  0
  -3.17647  -1.62474  -0.76329 H   0  0  0  0  0  0
  -3.36020  -1.24463   0.94808 H   0  0  0  0  0  0
  -3.35432  -3.35605   0.51169 C   0  0  0  0  0  0
  -3.05600  -3.67114   1.51836 H   0  0  0  0  0  0
  -2.88855  -4.04657  -0.20113 H   0  0  0  0  0  0
  -4.87631  -3.41668   0.37416 C   0  0  0  0  0  0
  -5.15953  -3.09317  -0.63531 H   0  0  0  0  0  0
  -5.33027  -2.70480   1.07538 H   0  0  0  0  0  0
  -5.44979  -4.81051   0.63947 C   0  0  0  0  0  0
  -5.24215  -5.10497   1.67540 H   0  0  0  0  0  0
  -4.96382  -5.54611  -0.01292 H   0  0  0  0  0  0
  -6.96063  -4.80389   0.37708 C   0  0  0  0  0  0
  -7.13719  -4.61294  -0.68813 H   0  0  0  0  0  0
  -7.40153  -3.97147   0.93820 H   0  0  0  0  0  0
  -7.63810  -6.09440   0.74809 C   0  0  0  0  0  0
   1.34242  -0.97616  -0.14298 O   0  0  0  0  0  0
   2.73045  -0.66982   0.07298 C   0  0  0  0  0  0
   3.60664  -1.69745  -0.65473 C   0  0  0  0  0  0
   3.44412  -3.03284  -0.11492 O   0  0  0  0  0  0
   5.06956  -1.23351  -0.69305 C   0  0  0  0  0  0
   5.46125  -1.07255   0.31414 H   0  0  0  0  0  0
   5.11729  -0.29083  -1.24949 H   0  0  0  0  0  0
   5.88292  -2.21414  -1.37027 O   0  0  0  0  0  0
   3.89120  -3.30777   1.13691 C   0  0  0  0  0  0
   4.43025  -2.50958   1.88950 O   0  0  0  0  0  0
   3.65542  -4.75743   1.46417 C   0  0  0  0  0  0
   2.79324  -5.11454   0.88809 H   0  0  0  0  0  0
   3.37096  -4.82947   2.52010 H   0  0  0  0  0  0
   4.89854  -5.59046   1.17210 C   0  0  0  0  0  0
   5.69139  -5.32944   1.88387 H   0  0  0  0  0  0
   5.28448  -5.35587   0.17220 H   0  0  0  0  0  0
   4.57654  -7.08113   1.26069 C   0  0  0  0  0  0
   3.82473  -7.32992   0.50137 H   0  0  0  0  0  0
   4.13088  -7.30408   2.23806 H   0  0  0  0  0  0
   5.81366  -7.95830   1.06118 C   0  0  0  0  0  0
   6.51596  -7.79658   1.88757 H   0  0  0  0  0  0
   6.32924  -7.67626   0.13530 H   0  0  0  0  0  0
   5.41153  -9.43288   0.99189 C   0  0  0  0  0  0
   4.77750  -9.59020   0.11052 H   0  0  0  0  0  0
   4.80858  -9.69182   1.87108 H   0  0  0  0  0  0
   6.62239 -10.36426   0.92552 C   0  0  0  0  0  0
   7.19513 -10.28424   1.85798 H   0  0  0  0  0  0
   7.28791 -10.05320   0.11033 H   0  0  0  0  0  0
   6.17516 -11.81364   0.70014 C   0  0  0  0  0  0
   5.72269 -11.89820  -0.29530 H   0  0  0  0  0  0
   5.39816 -12.06448   1.42787 H   0  0  0  0  0  0
   7.33035 -12.77014   0.77697 C   0  0  0  0  0  0
   7.36767 -13.95257   1.41537 C   0  0  0  0  0  0
   6.27209 -14.62237   2.19985 C   0  0  0  0  0  0
   5.43202 -13.94952   2.37755 H   0  0  0  0  0  0
   6.66605 -14.87555   3.19165 H   0  0  0  0  0  0
   5.83601 -15.89299   1.52501 C   0  0  0  0  0  0
   8.22444 -12.46876   0.23138 H   0  0  0  0  0  0
   8.29814 -14.51739   1.35845 H   0  0  0  0  0  0
   4.61784 -16.21312   1.05606 C   0  0  0  0  0  0
   3.36172 -15.38866   1.10702 C   0  0  0  0  0  0
   3.17394 -14.98416   0.10540 H   0  0  0  0  0  0
   3.46217 -14.53803   1.78742 H   0  0  0  0  0  0
   2.16346 -16.24046   1.54205 C   0  0  0  0  0  0
   6.62438 -16.63491   1.39789 H   0  0  0  0  0  0
   4.51742 -17.18059   0.56350 H   0  0  0  0  0  0
   2.35605 -16.67761   2.53013 H   0  0  0  0  0  0
   2.03263 -17.07608   0.84255 H   0  0  0  0  0  0
   0.87500 -15.41616   1.59181 C   0  0  0  0  0  0
   0.70593 -14.93632   0.62016 H   0  0  0  0  0  0
   0.98057 -14.61582   2.33422 H   0  0  0  0  0  0
  -0.32934 -16.29036   1.94412 C   0  0  0  0  0  0
  -0.16376 -16.78416   2.90868 H   0  0  0  0  0  0
  -0.44738 -17.07945   1.19213 H   0  0  0  0  0  0
  -1.61104 -15.47557   2.01387 C   0  0  0  0  0  0
  -1.81758 -14.98499   1.05734 H   0  0  0  0  0  0
  -1.54406 -14.70510   2.78851 H   0  0  0  0  0  0
  -2.45978 -16.12422   2.25269 H   0  0  0  0  0  0
   7.23573  -2.07332  -1.44656 C   0  0  0  0  0  0
   7.93310  -2.96810  -1.91110 O   0  0  0  0  0  0
   7.79762  -0.75977  -0.94613 C   0  0  0  0  0  0
   7.65182  -0.70582   0.13765 H   0  0  0  0  0  0
   7.24865   0.05195  -1.43439 H   0  0  0  0  0  0
   9.28329  -0.56412  -1.25551 C   0  0  0  0  0  0
   9.46939  -0.72192  -2.32458 H   0  0  0  0  0  0
   9.88198  -1.30420  -0.71139 H   0  0  0  0  0  0
   9.69768   0.85277  -0.85504 C   0  0  0  0  0  0
   9.52739   0.99071   0.22016 H   0  0  0  0  0  0
   9.05150   1.57292  -1.37339 H   0  0  0  0  0  0
  11.15532   1.17310  -1.18262 C   0  0  0  0  0  0
  11.33987   1.01561  -2.25175 H   0  0  0  0  0  0
  11.82051   0.49860  -0.63094 H   0  0  0  0  0  0
  11.45689   2.62716  -0.80995 C   0  0  0  0  0  0
  11.30975   2.76325   0.26871 H   0  0  0  0  0  0
  10.74010   3.28632  -1.31580 H   0  0  0  0  0  0
  12.87458   3.05205  -1.19001 C   0  0  0  0  0  0
  13.01417   2.93930  -2.27242 H   0  0  0  0  0  0
  13.60213   2.39341  -0.69926 H   0  0  0  0  0  0
  13.12559   4.50739  -0.77631 C   0  0  0  0  0  0
  13.07057   4.58736   0.31619 H   0  0  0  0  0  0
  12.32818   5.13904  -1.17815 H   0  0  0  0  0  0
  14.48071   4.98051  -1.21546 C   0  0  0  0  0  0
  14.77728   6.08518  -1.92174 C   0  0  0  0  0  0
  13.84251   7.13591  -2.45970 C   0  0  0  0  0  0
  12.79816   6.85166  -2.32188 H   0  0  0  0  0  0
  14.00048   7.20860  -3.54241 H   0  0  0  0  0  0
  14.13724   8.47787  -1.84753 C   0  0  0  0  0  0
  15.31352   4.35138  -0.90097 H   0  0  0  0  0  0
  15.83035   6.25854  -2.14430 H   0  0  0  0  0  0
  13.28363   9.32287  -1.24389 C   0  0  0  0  0  0
  11.80007   9.15851  -1.06468 C   0  0  0  0  0  0
  11.60981   8.81917  -0.03970 H   0  0  0  0  0  0
  11.39659   8.40084  -1.74343 H   0  0  0  0  0  0
  11.06561  10.48366  -1.30344 C   0  0  0  0  0  0
  15.18094   8.78801  -1.90070 H   0  0  0  0  0  0
  13.70582  10.23802  -0.82837 H   0  0  0  0  0  0
  11.28496  10.85585  -2.31231 H   0  0  0  0  0  0
  11.43220  11.23955  -0.59693 H   0  0  0  0  0  0
   9.55245  10.32611  -1.13628 C   0  0  0  0  0  0
   9.33220   9.90213  -0.14913 H   0  0  0  0  0  0
   9.17363   9.61911  -1.88427 H   0  0  0  0  0  0
   8.83379  11.66775  -1.28538 C   0  0  0  0  0  0
   9.06001  12.10717  -2.26379 H   0  0  0  0  0  0
   9.19540  12.36878  -0.52387 H   0  0  0  0  0  0
   7.32783  11.51392  -1.14334 C   0  0  0  0  0  0
   7.06584  11.09423  -0.16684 H   0  0  0  0  0  0
   6.92628  10.85522  -1.91999 H   0  0  0  0  0  0
   6.83666  12.48767  -1.23707 H   0  0  0  0  0  0
   2.92243  -0.67146   1.15065 H   0  0  0  0  0  0
   2.93738   0.32992  -0.32897 H   0  0  0  0  0  0
   3.25312  -1.78971  -1.68902 H   0  0  0  0  0  0
  -8.89673  -6.19445   1.21242 C   0  0  0  0  0  0
  -9.83940  -5.03499   1.38731 C   0  0  0  0  0  0
  -9.63547  -4.26947   0.62887 H   0  0  0  0  0  0
  -9.65831  -4.58562   2.37095 H   0  0  0  0  0  0
 -11.31725  -5.42851   1.28515 C   0  0  0  0  0  0
  -7.05645  -7.00710   0.63100 H   0  0  0  0  0  0
  -9.27253  -7.18143   1.47700 H   0  0  0  0  0  0
 -11.57600  -6.10718   2.10719 H   0  0  0  0  0  0
 -11.50621  -5.96579   0.34769 H   0  0  0  0  0  0
 -12.19462  -4.17494   1.34614 C   0  0  0  0  0  0
 -11.98628  -3.54761   0.47028 H   0  0  0  0  0  0
 -11.92703  -3.58540   2.23187 H   0  0  0  0  0  0
 -13.68749  -4.50020   1.39428 C   0  0  0  0  0  0
 -13.90373  -5.10347   2.28413 H   0  0  0  0  0  0
 -13.96951  -5.09651   0.51856 H   0  0  0  0  0  0
 -14.51105  -3.21004   1.43043 C   0  0  0  0  0  0
 -14.31808  -2.62986   0.51957 H   0  0  0  0  0  0
 -14.18717  -2.59327   2.27797 H   0  0  0  0  0  0
 -16.00945  -3.48649   1.55140 C   0  0  0  0  0  0
 -16.20517  -4.05944   2.46585 H   0  0  0  0  0  0
 -16.34233  -4.10009   0.70580 H   0  0  0  0  0  0
 -16.80352  -2.17954   1.58439 C   0  0  0  0  0  0
 -16.62106  -1.61072   0.66509 H   0  0  0  0  0  0
 -16.46370  -1.55835   2.42151 H   0  0  0  0  0  0
 -18.29548  -2.43104   1.72682 C   0  0  0  0  0  0
 -18.51607  -2.96579   2.65604 H   0  0  0  0  0  0
 -18.67557  -3.02384   0.88891 H   0  0  0  0  0  0
 -18.83892  -1.48093   1.74503 H   0  0  0  0  0  0
  1  2  1  0  0  0
  1  3  2  0  0  0
  4  2  1  0  0  0
  5  2  1  0  0  0
  6  2  1  0  0  0
  7  4  1  0  0  0
  8  4  1  0  0  0
  9  4  1  0  0  0
 10  9  1  0  0  0
 11  9  1  0  0  0
 12  9  1  0  0  0
 13 12  1  0  0  0
 14 12  1  0  0  0
 15 12  1  0  0  0
 16 15  1  0  0  0
 17 15  1  0  0  0
 18 15  1  0  0  0
 19 18  1  0  0  0
 20 18  1  0  0  0
 21 18  1  0  0  0
 22 21  1  0  0  0
 23 21  1  0  0  0
 24 21  1  0  0  0
 25  1  1  0  0  0
 26 25  1  0  0  0
 27 26  1  0  0  0
 27135  1  0  0  0
 28 27  1  0  0  0
 29 27  1  0  0  0
 30 29  1  0  0  0
 31 29  1  0  0  0
 32 29  1  0  0  0
 33 28  1  0  0  0
 34 33  2  0  0  0
 35 33  1  0  0  0
 36 35  1  0  0  0
 37 35  1  0  0  0
 38 35  1  0  0  0
 39 38  1  0  0  0
 40 38  1  0  0  0
 41 38  1  0  0  0
 42 41  1  0  0  0
 43 41  1  0  0  0
 44 41  1  0  0  0
 45 44  1  0  0  0
 46 44  1  0  0  0
 47 44  1  0  0  0
 48 47  1  0  0  0
 49 47  1  0  0  0
 50 47  1  0  0  0
 51 50  1  0  0  0
 52 50  1  0  0  0
 53 50  1  0  0  0
 54 53  1  0  0  0
 55 53  1  0  0  0
 56 53  1  0  0  0
 57 56  2  0  0  0
 58 57  1  0  0  0
 59 58  1  0  0  0
 60 58  1  0  0  0
 61 58  1  0  0  0
 62 56  1  0  0  0
 63 57  1  0  0  0
 64 61  2  0  0  0
 65 64  1  0  0  0
 66 65  1  0  0  0
 67 65  1  0  0  0
 68 65  1  0  0  0
 69 61  1  0  0  0
 70 64  1  0  0  0
 71 68  1  0  0  0
 72 68  1  0  0  0
 73 68  1  0  0  0
 74 73  1  0  0  0
 75 73  1  0  0  0
 76 73  1  0  0  0
 77 76  1  0  0  0
 78 76  1  0  0  0
 79 76  1  0  0  0
 80 79  1  0  0  0
 81 79  1  0  0  0
 82 79  1  0  0  0
 83 32  1  0  0  0
 84 83  2  0  0  0
 85 83  1  0  0  0
 86 85  1  0  0  0
 87 85  1  0  0  0
 88 85  1  0  0  0
 89 88  1  0  0  0
 90 88  1  0  0  0
 91 88  1  0  0  0
 92 91  1  0  0  0
 93 91  1  0  0  0
 94 91  1  0  0  0
 95 94  1  0  0  0
 96 94  1  0  0  0
 97 94  1  0  0  0
 98 97  1  0  0  0
 99 97  1  0  0  0
100 97  1  0  0  0
101100  1  0  0  0
102100  1  0  0  0
103100  1  0  0  0
104103  1  0  0  0
105103  1  0  0  0
106103  1  0  0  0
107106  2  0  0  0
108107  1  0  0  0
109108  1  0  0  0
110108  1  0  0  0
111108  1  0  0  0
112106  1  0  0  0
113107  1  0  0  0
114111  2  0  0  0
115114  1  0  0  0
116115  1  0  0  0
117115  1  0  0  0
118115  1  0  0  0
119111  1  0  0  0
120114  1  0  0  0
121118  1  0  0  0
122118  1  0  0  0
123118  1  0  0  0
124123  1  0  0  0
125123  1  0  0  0
126123  1  0  0  0
127126  1  0  0  0
128126  1  0  0  0
129126  1  0  0  0
130129  1  0  0  0
131129  1  0  0  0
132129  1  0  0  0
133 26  1  0  0  0
134 26  1  0  0  0
136 24  2  0  0  0
137136  1  0  0  0
138137  1  0  0  0
139137  1  0  0  0
140137  1  0  0  0
141 24  1  0  0  0
142136  1  0  0  0
143140  1  0  0  0
144140  1  0  0  0
145140  1  0  0  0
146145  1  0  0  0
147145  1  0  0  0
148145  1  0  0  0
149148  1  0  0  0
150148  1  0  0  0
151148  1  0  0  0
152151  1  0  0  0
153151  1  0  0  0
154151  1  0  0  0
155154  1  0  0  0
156154  1  0  0  0
157154  1  0  0  0
158157  1  0  0  0
159157  1  0  0  0
160157  1  0  0  0
161160  1  0  0  0
162160  1  0  0  0
163160  1  0  0  0
M  END
