
 OpenBabel04251410313D

159158  0  0  1  0  0  0  0  0999 V2000
    2.9030   -0.8052    1.5501 C   0  0  0  0  0  0  0  0  0  0  0  0
    1.8422   -0.3026    2.2289 O   0  0  0  0  0  0  0  0  0  0  0  0
    1.4257    1.0778    2.1289 C   0  0  0  0  0  0  0  0  0  0  0  0
    0.0487    1.2152    2.7975 C   0  0  2  0  0  0  0  0  0  0  0  0
   -0.8662    0.4185    1.9973 O   0  0  0  0  0  0  0  0  0  0  0  0
   -0.3914    2.6900    2.8361 C   0  0  0  0  0  0  0  0  0  0  0  0
   -1.2350    2.8563    2.1624 H   0  0  0  0  0  0  0  0  0  0  0  0
    0.4267    3.3577    2.5469 H   0  0  0  0  0  0  0  0  0  0  0  0
   -0.7136    3.0287    4.2055 O   0  0  0  0  0  0  0  0  0  0  0  0
   -2.1018    0.1961    2.5266 C   0  0  0  0  0  0  0  0  0  0  0  0
   -2.5492    0.7611    3.5121 O   0  0  0  0  0  0  0  0  0  0  0  0
   -2.8280   -0.8358    1.6964 C   0  0  0  0  0  0  0  0  0  0  0  0
   -2.2205   -1.7479    1.6846 H   0  0  0  0  0  0  0  0  0  0  0  0
   -2.9194   -0.4532    0.6740 H   0  0  0  0  0  0  0  0  0  0  0  0
   -4.2140   -1.1488    2.2587 C   0  0  0  0  0  0  0  0  0  0  0  0
   -4.8273   -0.2390    2.2501 H   0  0  0  0  0  0  0  0  0  0  0  0
   -4.1269   -1.4593    3.3075 H   0  0  0  0  0  0  0  0  0  0  0  0
   -4.9078   -2.2498    1.4545 C   0  0  0  0  0  0  0  0  0  0  0  0
   -4.2976   -3.1607    1.4793 H   0  0  0  0  0  0  0  0  0  0  0  0
   -4.9893   -1.9429    0.4047 H   0  0  0  0  0  0  0  0  0  0  0  0
   -6.3010   -2.5522    2.0097 C   0  0  0  0  0  0  0  0  0  0  0  0
   -6.9145   -1.6436    1.9712 H   0  0  0  0  0  0  0  0  0  0  0  0
   -6.2214   -2.8430    3.0643 H   0  0  0  0  0  0  0  0  0  0  0  0
   -6.9897   -3.6696    1.2216 C   0  0  0  0  0  0  0  0  0  0  0  0
   -6.3795   -4.5798    1.2628 H   0  0  0  0  0  0  0  0  0  0  0  0
   -7.0690   -3.3791    0.1670 H   0  0  0  0  0  0  0  0  0  0  0  0
   -8.3844   -3.9614    1.7797 C   0  0  0  0  0  0  0  0  0  0  0  0
   -8.9823   -3.0411    1.7545 H   0  0  0  0  0  0  0  0  0  0  0  0
   -8.3024   -4.2596    2.8327 H   0  0  0  0  0  0  0  0  0  0  0  0
   -9.0963   -5.0631    0.9862 C   0  0  0  0  0  0  0  0  0  0  0  0
   -8.4964   -5.9772    1.0137 H   0  0  0  0  0  0  0  0  0  0  0  0
   -9.1771   -4.7630   -0.0655 H   0  0  0  0  0  0  0  0  0  0  0  0
  -10.4832   -5.2855    1.5202 C   0  0  0  0  0  0  0  0  0  0  0  0
  -11.0429   -6.4309    1.9434 C   0  0  0  0  0  0  0  0  0  0  0  0
  -10.4557   -7.8173    1.9824 C   0  0  0  0  0  0  0  0  0  0  0  0
  -10.3716   -8.1188    3.0328 H   0  0  0  0  0  0  0  0  0  0  0  0
   -9.4503   -7.8329    1.5550 H   0  0  0  0  0  0  0  0  0  0  0  0
  -11.3525   -8.7991    1.2750 C   0  0  0  0  0  0  0  0  0  0  0  0
  -11.1029   -4.3890    1.5656 H   0  0  0  0  0  0  0  0  0  0  0  0
  -12.0626   -6.3609    2.3241 H   0  0  0  0  0  0  0  0  0  0  0  0
  -10.9882   -9.8674    0.5464 C   0  0  0  0  0  0  0  0  0  0  0  0
   -9.5948  -10.3810    0.3142 C   0  0  0  0  0  0  0  0  0  0  0  0
   -8.8915   -9.9619    1.0415 H   0  0  0  0  0  0  0  0  0  0  0  0
   -9.2688  -10.0656   -0.6836 H   0  0  0  0  0  0  0  0  0  0  0  0
   -9.5549  -11.9118    0.4015 C   0  0  0  0  0  0  0  0  0  0  0  0
  -12.4226   -8.6133    1.3680 H   0  0  0  0  0  0  0  0  0  0  0  0
  -11.7860  -10.4435    0.0769 H   0  0  0  0  0  0  0  0  0  0  0  0
  -10.2319  -12.3398   -0.3492 H   0  0  0  0  0  0  0  0  0  0  0  0
   -9.9189  -12.2400    1.3835 H   0  0  0  0  0  0  0  0  0  0  0  0
   -8.1418  -12.4532    0.1753 C   0  0  0  0  0  0  0  0  0  0  0  0
   -7.4783  -12.0864    0.9678 H   0  0  0  0  0  0  0  0  0  0  0  0
   -7.7497  -12.0752   -0.7765 H   0  0  0  0  0  0  0  0  0  0  0  0
   -8.1293  -13.9824    0.1590 C   0  0  0  0  0  0  0  0  0  0  0  0
   -8.7802  -14.3501   -0.6430 H   0  0  0  0  0  0  0  0  0  0  0  0
   -8.5281  -14.3705    1.1034 H   0  0  0  0  0  0  0  0  0  0  0  0
   -6.7258  -14.5276   -0.0525 C   0  0  0  0  0  0  0  0  0  0  0  0
   -6.0590  -14.2185    0.7587 H   0  0  0  0  0  0  0  0  0  0  0  0
   -6.3047  -14.1723   -0.9984 H   0  0  0  0  0  0  0  0  0  0  0  0
   -6.7440  -15.6217   -0.0790 H   0  0  0  0  0  0  0  0  0  0  0  0
   -1.7030    3.8831    4.5685 C   0  0  0  0  0  0  0  0  0  0  0  0
   -1.9720    4.0507    5.7539 O   0  0  0  0  0  0  0  0  0  0  0  0
   -2.3869    4.6477    3.4554 C   0  0  0  0  0  0  0  0  0  0  0  0
   -2.9724    3.9484    2.8500 H   0  0  0  0  0  0  0  0  0  0  0  0
   -1.6127    5.1188    2.8401 H   0  0  0  0  0  0  0  0  0  0  0  0
   -3.3208    5.7379    3.9912 C   0  0  0  0  0  0  0  0  0  0  0  0
   -2.8007    6.3395    4.7470 H   0  0  0  0  0  0  0  0  0  0  0  0
   -4.1763    5.2697    4.4942 H   0  0  0  0  0  0  0  0  0  0  0  0
   -3.8116    6.6541    2.8676 C   0  0  0  0  0  0  0  0  0  0  0  0
   -4.3077    6.0576    2.0925 H   0  0  0  0  0  0  0  0  0  0  0  0
   -2.9492    7.1425    2.3976 H   0  0  0  0  0  0  0  0  0  0  0  0
   -4.7785    7.7187    3.3912 C   0  0  0  0  0  0  0  0  0  0  0  0
   -4.3127    8.2662    4.2195 H   0  0  0  0  0  0  0  0  0  0  0  0
   -5.6757    7.2304    3.7910 H   0  0  0  0  0  0  0  0  0  0  0  0
   -5.1748    8.7049    2.2885 C   0  0  0  0  0  0  0  0  0  0  0  0
   -5.6301    8.1591    1.4534 H   0  0  0  0  0  0  0  0  0  0  0  0
   -4.2768    9.2010    1.9009 H   0  0  0  0  0  0  0  0  0  0  0  0
   -6.1557    9.7585    2.8084 C   0  0  0  0  0  0  0  0  0  0  0  0
   -5.7013   10.3016    3.6469 H   0  0  0  0  0  0  0  0  0  0  0  0
   -7.0491    9.2554    3.2007 H   0  0  0  0  0  0  0  0  0  0  0  0
   -6.5598   10.7502    1.7097 C   0  0  0  0  0  0  0  0  0  0  0  0
   -7.0157   10.2044    0.8753 H   0  0  0  0  0  0  0  0  0  0  0  0
   -5.6637   11.2455    1.3241 H   0  0  0  0  0  0  0  0  0  0  0  0
   -7.5618   11.7414    2.2309 C   0  0  0  0  0  0  0  0  0  0  0  0
   -7.5468   13.0801    2.1184 C   0  0  0  0  0  0  0  0  0  0  0  0
   -6.5504   13.9604    1.4105 C   0  0  0  0  0  0  0  0  0  0  0  0
   -5.8133   13.3652    0.8663 H   0  0  0  0  0  0  0  0  0  0  0  0
   -6.0102   14.5406    2.1673 H   0  0  0  0  0  0  0  0  0  0  0  0
   -7.2516   14.9224    0.4872 C   0  0  0  0  0  0  0  0  0  0  0  0
   -8.4029   11.3034    2.7697 H   0  0  0  0  0  0  0  0  0  0  0  0
   -8.3624   13.6165    2.6049 H   0  0  0  0  0  0  0  0  0  0  0  0
   -6.9027   15.2703   -0.7627 C   0  0  0  0  0  0  0  0  0  0  0  0
   -5.6802   14.8310   -1.5189 C   0  0  0  0  0  0  0  0  0  0  0  0
   -5.9313   13.9411   -2.1073 H   0  0  0  0  0  0  0  0  0  0  0  0
   -4.8716   14.5628   -0.8301 H   0  0  0  0  0  0  0  0  0  0  0  0
   -5.1897   15.9380   -2.4610 C   0  0  0  0  0  0  0  0  0  0  0  0
   -8.1549   15.3820    0.8888 H   0  0  0  0  0  0  0  0  0  0  0  0
   -7.5669   15.9555   -1.2897 H   0  0  0  0  0  0  0  0  0  0  0  0
   -4.9902   16.8544   -1.8909 H   0  0  0  0  0  0  0  0  0  0  0  0
   -5.9796   16.1781   -3.1846 H   0  0  0  0  0  0  0  0  0  0  0  0
   -3.9241   15.5217   -3.2131 C   0  0  0  0  0  0  0  0  0  0  0  0
   -4.0960   14.5685   -3.7274 H   0  0  0  0  0  0  0  0  0  0  0  0
   -3.1094   15.3613   -2.4966 H   0  0  0  0  0  0  0  0  0  0  0  0
   -3.5116   16.5832   -4.2341 C   0  0  0  0  0  0  0  0  0  0  0  0
   -3.3529   17.5447   -3.7320 H   0  0  0  0  0  0  0  0  0  0  0  0
   -4.3170   16.7281   -4.9638 H   0  0  0  0  0  0  0  0  0  0  0  0
   -2.2412   16.1881   -4.9698 C   0  0  0  0  0  0  0  0  0  0  0  0
   -2.3715   15.2373   -5.4965 H   0  0  0  0  0  0  0  0  0  0  0  0
   -1.4021   16.0844   -4.2746 H   0  0  0  0  0  0  0  0  0  0  0  0
   -1.9778   16.9518   -5.7084 H   0  0  0  0  0  0  0  0  0  0  0  0
    3.1489   -2.0062    1.5918 O   0  0  0  0  0  0  0  0  0  0  0  0
    3.7457    0.1816    0.7674 C   0  0  0  0  0  0  0  0  0  0  0  0
    4.0851    0.9711    1.4456 H   0  0  0  0  0  0  0  0  0  0  0  0
    3.1344    0.6135   -0.0311 H   0  0  0  0  0  0  0  0  0  0  0  0
    4.9689   -0.4962    0.1418 C   0  0  0  0  0  0  0  0  0  0  0  0
    4.6392   -1.2981   -0.5310 H   0  0  0  0  0  0  0  0  0  0  0  0
    5.5680   -0.9721    0.9285 H   0  0  0  0  0  0  0  0  0  0  0  0
    5.8388    0.4953   -0.6339 C   0  0  0  0  0  0  0  0  0  0  0  0
    6.1835    1.2882    0.0407 H   0  0  0  0  0  0  0  0  0  0  0  0
    5.2421    0.9737   -1.4198 H   0  0  0  0  0  0  0  0  0  0  0  0
    7.0451   -0.2080   -1.2610 C   0  0  0  0  0  0  0  0  0  0  0  0
    6.6962   -0.9951   -1.9408 H   0  0  0  0  0  0  0  0  0  0  0  0
    7.6319   -0.6986   -0.4747 H   0  0  0  0  0  0  0  0  0  0  0  0
    7.9385    0.7692   -2.0281 C   0  0  0  0  0  0  0  0  0  0  0  0
    8.2927    1.5542   -1.3491 H   0  0  0  0  0  0  0  0  0  0  0  0
    7.3558    1.2605   -2.8166 H   0  0  0  0  0  0  0  0  0  0  0  0
    9.1369    0.0473   -2.6488 C   0  0  0  0  0  0  0  0  0  0  0  0
    8.7801   -0.7335   -3.3316 H   0  0  0  0  0  0  0  0  0  0  0  0
    9.7118   -0.4527   -1.8597 H   0  0  0  0  0  0  0  0  0  0  0  0
   10.0483    1.0129   -3.4091 C   0  0  0  0  0  0  0  0  0  0  0  0
   10.4081    1.7929   -2.7273 H   0  0  0  0  0  0  0  0  0  0  0  0
    9.4770    1.5125   -4.2008 H   0  0  0  0  0  0  0  0  0  0  0  0
   11.2418    0.2774   -4.0231 C   0  0  0  0  0  0  0  0  0  0  0  0
   10.8803   -0.5008   -4.7064 H   0  0  0  0  0  0  0  0  0  0  0  0
   11.8084   -0.2268   -3.2308 H   0  0  0  0  0  0  0  0  0  0  0  0
   12.1645    1.2342   -4.7806 C   0  0  0  0  0  0  0  0  0  0  0  0
   12.5284    2.0117   -4.0979 H   0  0  0  0  0  0  0  0  0  0  0  0
   11.6002    1.7382   -5.5745 H   0  0  0  0  0  0  0  0  0  0  0  0
   13.3542    0.4894   -5.3903 C   0  0  0  0  0  0  0  0  0  0  0  0
   12.9894   -0.2877   -6.0730 H   0  0  0  0  0  0  0  0  0  0  0  0
   13.9164   -0.0165   -4.5960 H   0  0  0  0  0  0  0  0  0  0  0  0
   14.2829    1.4404   -6.1476 C   0  0  0  0  0  0  0  0  0  0  0  0
   14.6494    2.2170   -5.4653 H   0  0  0  0  0  0  0  0  0  0  0  0
   13.7219    1.9464   -6.9427 H   0  0  0  0  0  0  0  0  0  0  0  0
   15.4700    0.6904   -6.7555 C   0  0  0  0  0  0  0  0  0  0  0  0
   15.1031   -0.0864   -7.4375 H   0  0  0  0  0  0  0  0  0  0  0  0
   16.0303    0.1838   -5.9602 H   0  0  0  0  0  0  0  0  0  0  0  0
   16.4012    1.6384   -7.5132 C   0  0  0  0  0  0  0  0  0  0  0  0
   16.7690    2.4150   -6.8316 H   0  0  0  0  0  0  0  0  0  0  0  0
   15.8416    2.1453   -8.3088 H   0  0  0  0  0  0  0  0  0  0  0  0
   17.5860    0.8867   -8.1198 C   0  0  0  0  0  0  0  0  0  0  0  0
   17.2239    0.1116   -8.8053 H   0  0  0  0  0  0  0  0  0  0  0  0
   18.1513    0.3812   -7.3282 H   0  0  0  0  0  0  0  0  0  0  0  0
   18.5148    1.8248   -8.8741 C   0  0  0  0  0  0  0  0  0  0  0  0
   18.9207    2.5936   -8.2091 H   0  0  0  0  0  0  0  0  0  0  0  0
   17.9881    2.3227   -9.6945 H   0  0  0  0  0  0  0  0  0  0  0  0
   19.3544    1.2659   -9.2993 H   0  0  0  0  0  0  0  0  0  0  0  0
    1.3525    1.3577    1.0729 H   0  0  0  0  0  0  0  0  0  0  0  0
    2.1649    1.7002    2.6434 H   0  0  0  0  0  0  0  0  0  0  0  0
    0.0937    0.7698    3.7999 H   0  0  0  0  0  0  0  0  0  0  0  0
  1  2  1  0  0  0  0
  3  2  1  0  0  0  0
  3  4  1  0  0  0  0
  4159  1  1  0  0  0
  5  4  1  0  0  0  0
  6  4  1  0  0  0  0
  6  8  1  0  0  0  0
  6  9  1  0  0  0  0
  7  6  1  0  0  0  0
 10  5  1  0  0  0  0
 10 11  2  0  0  0  0
 12 13  1  0  0  0  0
 12 10  1  0  0  0  0
 14 12  1  0  0  0  0
 15 12  1  0  0  0  0
 15 17  1  0  0  0  0
 16 15  1  0  0  0  0
 18 19  1  0  0  0  0
 18 15  1  0  0  0  0
 20 18  1  0  0  0  0
 21 18  1  0  0  0  0
 21 23  1  0  0  0  0
 22 21  1  0  0  0  0
 24 25  1  0  0  0  0
 24 21  1  0  0  0  0
 26 24  1  0  0  0  0
 27 24  1  0  0  0  0
 27 29  1  0  0  0  0
 28 27  1  0  0  0  0
 30 31  1  0  0  0  0
 30 27  1  0  0  0  0
 32 30  1  0  0  0  0
 33 39  1  0  0  0  0
 33 30  1  0  0  0  0
 34 33  2  0  0  0  0
 35 34  1  0  0  0  0
 35 36  1  0  0  0  0
 37 35  1  0  0  0  0
 38 35  1  0  0  0  0
 40 34  1  0  0  0  0
 41 38  2  0  0  0  0
 41 42  1  0  0  0  0
 42 43  1  0  0  0  0
 44 42  1  0  0  0  0
 45 42  1  0  0  0  0
 45 49  1  0  0  0  0
 45 50  1  0  0  0  0
 46 38  1  0  0  0  0
 47 41  1  0  0  0  0
 48 45  1  0  0  0  0
 50 51  1  0  0  0  0
 52 50  1  0  0  0  0
 53 50  1  0  0  0  0
 53 56  1  0  0  0  0
 53 55  1  0  0  0  0
 54 53  1  0  0  0  0
 56 57  1  0  0  0  0
 58 56  1  0  0  0  0
 59 56  1  0  0  0  0
 60  9  1  0  0  0  0
 60 61  2  0  0  0  0
 62 65  1  0  0  0  0
 62 64  1  0  0  0  0
 62 60  1  0  0  0  0
 63 62  1  0  0  0  0
 65 66  1  0  0  0  0
 67 65  1  0  0  0  0
 68 71  1  0  0  0  0
 68 70  1  0  0  0  0
 68 65  1  0  0  0  0
 69 68  1  0  0  0  0
 71 72  1  0  0  0  0
 73 71  1  0  0  0  0
 74 76  1  0  0  0  0
 74 71  1  0  0  0  0
 75 74  1  0  0  0  0
 77 74  1  0  0  0  0
 77 78  1  0  0  0  0
 79 77  1  0  0  0  0
 80 82  1  0  0  0  0
 80 77  1  0  0  0  0
 81 80  1  0  0  0  0
 83 80  1  0  0  0  0
 83 89  1  0  0  0  0
 84 83  2  0  0  0  0
 85 84  1  0  0  0  0
 85 87  1  0  0  0  0
 86 85  1  0  0  0  0
 88 96  1  0  0  0  0
 88 85  1  0  0  0  0
 90 84  1  0  0  0  0
 91 88  2  0  0  0  0
 92 91  1  0  0  0  0
 92 94  1  0  0  0  0
 93 92  1  0  0  0  0
 95 98  1  0  0  0  0
 95 92  1  0  0  0  0
 97 91  1  0  0  0  0
 99 95  1  0  0  0  0
100 95  1  0  0  0  0
100102  1  0  0  0  0
101100  1  0  0  0  0
103106  1  0  0  0  0
103104  1  0  0  0  0
103100  1  0  0  0  0
105103  1  0  0  0  0
106108  1  0  0  0  0
107106  1  0  0  0  0
109106  1  0  0  0  0
110  1  2  0  0  0  0
111  1  1  0  0  0  0
112111  1  0  0  0  0
113111  1  0  0  0  0
114111  1  0  0  0  0
115114  1  0  0  0  0
116114  1  0  0  0  0
117114  1  0  0  0  0
118117  1  0  0  0  0
119117  1  0  0  0  0
120117  1  0  0  0  0
121120  1  0  0  0  0
122120  1  0  0  0  0
123120  1  0  0  0  0
124123  1  0  0  0  0
125123  1  0  0  0  0
126123  1  0  0  0  0
127126  1  0  0  0  0
128126  1  0  0  0  0
129126  1  0  0  0  0
130129  1  0  0  0  0
131129  1  0  0  0  0
132129  1  0  0  0  0
133132  1  0  0  0  0
134132  1  0  0  0  0
135132  1  0  0  0  0
136135  1  0  0  0  0
137135  1  0  0  0  0
138135  1  0  0  0  0
139138  1  0  0  0  0
140138  1  0  0  0  0
141138  1  0  0  0  0
142141  1  0  0  0  0
143141  1  0  0  0  0
144141  1  0  0  0  0
145144  1  0  0  0  0
146144  1  0  0  0  0
147144  1  0  0  0  0
148147  1  0  0  0  0
149147  1  0  0  0  0
150147  1  0  0  0  0
151150  1  0  0  0  0
152150  1  0  0  0  0
153150  1  0  0  0  0
154153  1  0  0  0  0
155153  1  0  0  0  0
156153  1  0  0  0  0
157  3  1  0  0  0  0
158  3  1  0  0  0  0
M  END
