http://cactus.nci.nih.gov/chemical/structure/HEXAFLUOROISOPROPANOL/file?format=sdf&get3d=True
__Jmol-12_10201115443D 1   1.00000     0.00000     0
Jmol version 12.1.38_dev  2011-02-16 08:29 EXTRACT: ({0:11})
 12 11  0  0  0  0              1 V2000
  -1.34650  -1.55960  -0.09820 F   0  0  0  0  0  0
  -1.31300  -0.28560   0.47890 C   0  0  0  0  0  0
  -0.18370   0.53090  -0.15260 C   0  0  0  0  0  0
   1.15250  -0.17410   0.08970 C   0  0  0  0  0  0
   1.11900  -1.44800  -0.48740 F   0  0  0  0  0  0
   2.18510   0.57250  -0.48770 F   0  0  0  0  0  0
   1.37500  -0.29120   1.46600 F   0  0  0  0  0  0
  -0.41100   0.65060  -1.55830 O   0  0  0  0  0  0
  -0.15020   1.80490   0.42450 F   0  0  0  0  0  0
  -2.53470   0.35900   0.25730 F   0  0  0  0  0  0
  -1.13960  -0.37690   1.55110 H   0  0  0  0  0  0
  -0.44620  -0.19590  -2.02450 H   0  0  0  0  0  0
  1  2  1  0  0  0
  2  3  1  0  0  0
  3  4  1  0  0  0
  4  5  1  0  0  0
  4  6  1  0  0  0
  4  7  1  0  0  0
  3  8  1  0  0  0
  3  9  1  0  0  0
  2 10  1  0  0  0
  2 11  1  0  0  0
  8 12  1  0  0  0
M  END
