http://cactus.nci.nih.gov/chemical/structure/benzene/file?format=sdf&get3d=True
__Jmol-12_05291313093D 1   1.00000     0.00000     0
Jmol version 12.3.28  2012-05-30 15:29 EXTRACT: ({0:17 21:26 29 31:38})
 33 33  0  0  0  0              1 V2000
   0.03247  -1.38015   0.07135 C   0  0  0  0  0  0
  -1.18006  -0.71637   0.07148 C   0  0  0  0  0  0
  -1.21254   0.66377  -0.00017 C   0  0  0  0  0  0
  -0.03248   1.38014  -0.07155 C   0  0  0  0  0  0
   1.18008   0.71640  -0.07078 C   0  0  0  0  0  0
   1.21252  -0.66381  -0.00053 C   0  0  0  0  0  0
   0.05798  -2.45811   0.13184 H   0  0  0  0  0  0
  -2.46061  -1.49369   0.14880 C   0  0  0  0  0  0
  -2.15992   1.18227  -0.00080 H   0  0  0  0  0  0
  -0.05788   2.45830  -0.12825 H   0  0  0  0  0  0
   2.46059   1.49367  -0.14921 C   0  0  0  0  0  0
   2.15991  -1.18229   0.00050 H   0  0  0  0  0  0
  -2.47832  -2.07958   1.07962 H   0  0  0  0  0  0
  -2.52976  -2.17319  -0.71347 H   0  0  0  0  0  0
  -3.62287  -0.54560   0.13264 C   0  0  0  0  0  0
  -3.60528   0.04030  -0.79818 H   0  0  0  0  0  0
  -3.52874   0.38101   1.30847 C   0  0  0  0  0  0
  -4.90342  -1.32292   0.20996 C   0  0  0  0  0  0
  -2.58973   0.95114   1.25183 H   0  0  0  0  0  0
  -3.54639  -0.20480   2.23935 H   0  0  0  0  0  0
  -4.38107   1.07628   1.29662 H   0  0  0  0  0  0
   2.55488   2.42190   1.02532 C   0  0  0  0  0  0
   2.47826   2.07826  -1.08085 H   0  0  0  0  0  0
   3.62290   0.54564  -0.13176 C   0  0  0  0  0  0
   4.90342   1.32291  -0.21018 O   0  0  0  0  0  0
   3.52052  -0.94856  -0.04872 O   0  0  0  0  0  0
   4.43798  -1.34637  -0.05374 H   0  0  0  0  0  0
   2.53728   1.83739   1.95702 H   0  0  0  0  0  0
   1.70259   3.11721   1.01258 H   0  0  0  0  0  0
   3.49392   2.99190   0.96781 H   0  0  0  0  0  0
  -4.92113  -1.90881   1.14079 H   0  0  0  0  0  0
  -4.97257  -2.00242  -0.65231 H   0  0  0  0  0  0
  -5.75575  -0.62765   0.19811 H   0  0  0  0  0  0
  1  2  2  0  0  0
  2  3  1  0  0  0
  3  4  2  0  0  0
  4  5  1  0  0  0
  5  6  2  0  0  0
  1  6  1  0  0  0
  1  7  1  0  0  0
  2  8  1  0  0  0
  3  9  1  0  0  0
  4 10  1  0  0  0
  5 11  1  0  0  0
  6 12  1  0  0  0
 13  8  1  0  0  0
 14  8  1  0  0  0
 15  8  1  0  0  0
 16 15  1  0  0  0
 17 15  1  0  0  0
 18 15  1  0  0  0
 19 17  1  0  0  0
 20 17  1  0  0  0
 21 17  1  0  0  0
 22 11  1  0  0  0
 23 11  1  0  0  0
 24 11  1  0  0  0
 25 24  2  0  0  0
 26 24  1  0  0  0
 27 26  1  0  0  0
 28 22  1  0  0  0
 29 22  1  0  0  0
 30 22  1  0  0  0
 31 18  1  0  0  0
 32 18  1  0  0  0
 33 18  1  0  0  0
M  END
