http://cactus.nci.nih.gov/chemical/structure/IODOMETHANE/file?format=sdf&get3d=True
__Jmol-12_05171114173D 1   1.00000     0.00000     0
Jmol version 12.1.38_dev  2011-02-16 08:29 EXTRACT: ({0:4})
  5  4  0  0  0  0              1 V2000
  -0.23670   0.00000   0.00000 I   0  0  0  0  0  0
   1.92530   0.00000   0.00000 C   0  0  0  0  0  0
   2.28860   0.00000   1.02770 H   0  0  0  0  0  0
   2.28860  -0.89000  -0.51380 H   0  0  0  0  0  0
   2.28860   0.89000  -0.51380 H   0  0  0  0  0  0
  1  2  1  0  0  0
  2  3  1  0  0  0
  2  4  1  0  0  0
  2  5  1  0  0  0
M  END
