http://cactus.nci.nih.gov/chemical/structure/IODOBENZENE/file?format=sdf&get3d=True
__Jmol-12_10201115453D 1   1.00000     0.00000     0
Jmol version 12.1.38_dev  2011-02-16 08:29 EXTRACT: ({0:11})
 12 12  0  0  0  0              1 V2000
  -1.32650   0.00000  -0.00010 I   0  0  0  0  0  0
   0.76850   0.00000  -0.00060 C   0  0  0  0  0  0
   1.46010   1.19760   0.00050 C   0  0  0  0  0  0
   2.84230   1.19730   0.00070 C   0  0  0  0  0  0
   3.53340   0.00000  -0.00080 C   0  0  0  0  0  0
   2.84230  -1.19730  -0.00200 C   0  0  0  0  0  0
   1.46010  -1.19760   0.00360 C   0  0  0  0  0  0
   0.92030   2.13300   0.00100 H   0  0  0  0  0  0
   3.38250   2.13250   0.00160 H   0  0  0  0  0  0
   4.61340   0.00000  -0.00140 H   0  0  0  0  0  0
   3.38250  -2.13250  -0.00320 H   0  0  0  0  0  0
   0.92020  -2.13300   0.00310 H   0  0  0  0  0  0
  1  2  1  0  0  0
  2  3  2  0  0  0
  3  4  1  0  0  0
  4  5  2  0  0  0
  5  6  1  0  0  0
  6  7  2  0  0  0
  2  7  1  0  0  0
  3  8  1  0  0  0
  4  9  1  0  0  0
  5 10  1  0  0  0
  6 11  1  0  0  0
  7 12  1  0  0  0
M  END
