
 OpenBabel11141309503D

 24 24  0  0  0  0  0  0  0  0999 V2000
   -4.2475    1.5873   -2.7763 C   0  0  0  0  0  0  0  0  0  0  0  0
   -5.3682    1.0258   -3.4030 C   0  0  0  0  0  0  0  0  0  0  0  0
   -4.4118    2.7441   -2.0028 C   0  0  0  0  0  0  0  0  0  0  0  0
   -6.6280    1.6083   -3.2568 C   0  0  0  0  0  0  0  0  0  0  0  0
   -5.6724    3.3256   -1.8575 C   0  0  0  0  0  0  0  0  0  0  0  0
   -6.7798    2.7577   -2.4841 C   0  0  0  0  0  0  0  0  0  0  0  0
   -5.2647    0.1294   -4.0107 H   0  0  0  0  0  0  0  0  0  0  0  0
   -3.5582    3.1986   -1.5047 H   0  0  0  0  0  0  0  0  0  0  0  0
   -7.4910    1.1648   -3.7465 H   0  0  0  0  0  0  0  0  0  0  0  0
   -5.7898    4.2222   -1.2545 H   0  0  0  0  0  0  0  0  0  0  0  0
   -7.7610    3.2111   -2.3703 H   0  0  0  0  0  0  0  0  0  0  0  0
   -2.8849    0.9543   -2.9315 C   0  0  0  0  0  0  0  0  0  0  0  0
   -2.1068    1.6612   -2.6145 H   0  0  0  0  0  0  0  0  0  0  0  0
   -2.7147    0.7910   -4.0042 H   0  0  0  0  0  0  0  0  0  0  0  0
   -2.7249   -0.3762   -2.1701 C   0  0  0  0  0  0  0  0  0  0  0  0
   -3.5364   -1.0594   -2.4514 H   0  0  0  0  0  0  0  0  0  0  0  0
   -2.7753   -0.1792   -0.6529 C   0  0  0  0  0  0  0  0  0  0  0  0
   -1.4020   -1.0403   -2.5600 C   0  0  0  0  0  0  0  0  0  0  0  0
   -0.5468   -0.4087   -2.2961 H   0  0  0  0  0  0  0  0  0  0  0  0
   -1.3646   -1.2296   -3.6379 H   0  0  0  0  0  0  0  0  0  0  0  0
   -1.2836   -2.0018   -2.0492 H   0  0  0  0  0  0  0  0  0  0  0  0
   -3.7486    0.2061   -0.3335 H   0  0  0  0  0  0  0  0  0  0  0  0
   -2.0039    0.5225   -0.3175 H   0  0  0  0  0  0  0  0  0  0  0  0
   -2.6149   -1.1301   -0.1333 H   0  0  0  0  0  0  0  0  0  0  0  0
  1  3  1  0  0  0  0
  2  1  2  0  0  0  0
  2  7  1  0  0  0  0
  3  5  2  0  0  0  0
  3  8  1  0  0  0  0
  4  2  1  0  0  0  0
  4  9  1  0  0  0  0
  5  6  1  0  0  0  0
  5 10  1  0  0  0  0
  6  4  2  0  0  0  0
  6 11  1  0  0  0  0
 12  1  1  0  0  0  0
 13 12  1  0  0  0  0
 14 12  1  0  0  0  0
 15 12  1  0  0  0  0
 16 15  1  0  0  0  0
 17 15  1  0  0  0  0
 18 15  1  0  0  0  0
 19 18  1  0  0  0  0
 20 18  1  0  0  0  0
 21 18  1  0  0  0  0
 22 17  1  0  0  0  0
 23 17  1  0  0  0  0
 24 17  1  0  0  0  0
M  END
