Propanenitrile, 2-methyl-, ID: C78820
  NIST    04042217093D 1   1.00000     0.00000      
NIST Chemistry WebBook
 12 11  0     0  0              1 V2000
    2.0708    2.4126    0.5759 C   0  0  0  0  0  0           0  0  0
    2.1554    1.1496    1.2973 C   0  0  0  0  0  0           0  0  0
    0.9261    0.9671    2.1771 C   0  0  0  0  0  0           0  0  0
    3.4341    1.1041    2.1226 C   0  0  0  0  0  0           0  0  0
    2.0046    3.4159    0.0000 N   0  0  0  0  0  0           0  0  0
    2.1828    0.3402    0.5255 H   0  0  0  0  0  0           0  0  0
    0.9639    0.0000    2.6955 H   0  0  0  0  0  0           0  0  0
    0.0000    0.9926    1.5891 H   0  0  0  0  0  0           0  0  0
    0.8535    1.7491    2.9442 H   0  0  0  0  0  0           0  0  0
    4.3258    1.2282    1.4953 H   0  0  0  0  0  0           0  0  0
    3.5238    0.1401    2.6403 H   0  0  0  0  0  0           0  0  0
    3.4547    1.8916    2.8874 H   0  0  0  0  0  0           0  0  0
  1  2  1  0     0  0
  1  5  3  0     0  0
  2  3  1  0     0  0
  2  4  1  0     0  0
  2  6  1  0     0  0
  3  7  1  0     0  0
  3  8  1  0     0  0
  3  9  1  0     0  0
  4 10  1  0     0  0
  4 11  1  0     0  0
  4 12  1  0     0  0
M  END
