http://cactus.nci.nih.gov/chemical/structure/M-CRESOL/file?format=sdf&get3d=True
__Jmol-12_10201115463D 1   1.00000     0.00000     0
Jmol version 12.1.38_dev  2011-02-16 08:29 EXTRACT: ({0:15})
 16 16  0  0  0  0              1 V2000
  -0.03060  -0.98420  -0.01590 C   0  0  0  0  0  0
  -1.22000  -0.28210   0.00030 C   0  0  0  0  0  0
  -1.20800   1.10060   0.01140 C   0  0  0  0  0  0
  -0.00610   1.78380   0.00640 C   0  0  0  0  0  0
   1.18640   1.08620  -0.01020 C   0  0  0  0  0  0
   1.17700  -0.30090  -0.02090 C   0  0  0  0  0  0
   2.34860  -0.98940  -0.03690 O   0  0  0  0  0  0
  -2.53190  -1.02370   0.00530 C   0  0  0  0  0  0
  -0.04050  -2.06410  -0.02010 H   0  0  0  0  0  0
  -2.13900   1.64780   0.02370 H   0  0  0  0  0  0
   0.00070   2.86370   0.01510 H   0  0  0  0  0  0
   2.12500   1.62030  -0.01490 H   0  0  0  0  0  0
   2.69560  -1.19550   0.84190 H   0  0  0  0  0  0
  -2.83940  -1.21110   1.03410 H   0  0  0  0  0  0
  -3.29050  -0.42340  -0.49690 H   0  0  0  0  0  0
  -2.41480  -1.97290  -0.51760 H   0  0  0  0  0  0
  1  2  2  0  0  0
  2  3  1  0  0  0
  3  4  2  0  0  0
  4  5  1  0  0  0
  5  6  2  0  0  0
  1  6  1  0  0  0
  6  7  1  0  0  0
  2  8  1  0  0  0
  1  9  1  0  0  0
  3 10  1  0  0  0
  4 11  1  0  0  0
  5 12  1  0  0  0
  7 13  1  0  0  0
  8 14  1  0  0  0
  8 15  1  0  0  0
  8 16  1  0  0  0
M  END
