
 OpenBabel12051309563D

 24 24  0  0  0  0  0  0  0  0999 V2000
    0.0515   -1.4162    0.0015 C   0  0  0  0  0  0  0  0  0  0  0  0
   -1.1972   -0.7945    0.0011 C   0  0  0  0  0  0  0  0  0  0  0  0
   -1.2891    0.5964    0.0000 C   0  0  0  0  0  0  0  0  0  0  0  0
   -0.1348    1.3921   -0.0005 C   0  0  0  0  0  0  0  0  0  0  0  0
    1.1127    0.7510   -0.0002 C   0  0  0  0  0  0  0  0  0  0  0  0
    1.2241   -0.6536    0.0008 C   0  0  0  0  0  0  0  0  0  0  0  0
    0.0841   -2.5018    0.0025 H   0  0  0  0  0  0  0  0  0  0  0  0
   -2.1018   -1.3968    0.0016 H   0  0  0  0  0  0  0  0  0  0  0  0
   -2.2728    1.0608   -0.0003 H   0  0  0  0  0  0  0  0  0  0  0  0
   -0.3071    2.8943   -0.0017 C   0  0  0  0  0  0  0  0  0  0  0  0
    2.0285    1.3378   -0.0006 H   0  0  0  0  0  0  0  0  0  0  0  0
    2.6126   -1.2538    0.0015 C   0  0  0  0  0  0  0  0  0  0  0  0
   -0.8971    3.1696    0.8816 H   0  0  0  0  0  0  0  0  0  0  0  0
   -0.8956    3.1684   -0.8864 H   0  0  0  0  0  0  0  0  0  0  0  0
    0.9623    3.7367   -0.0011 C   0  0  0  0  0  0  0  0  0  0  0  0
    1.5721    3.5399   -0.8890 H   0  0  0  0  0  0  0  0  0  0  0  0
    1.5707    3.5406    0.8880 H   0  0  0  0  0  0  0  0  0  0  0  0
    0.7056    4.8011   -0.0017 H   0  0  0  0  0  0  0  0  0  0  0  0
    3.1433   -0.8822    0.8871 H   0  0  0  0  0  0  0  0  0  0  0  0
    3.1458   -0.8784   -0.8810 H   0  0  0  0  0  0  0  0  0  0  0  0
    2.7085   -2.7743   -0.0018 C   0  0  0  0  0  0  0  0  0  0  0  0
    2.2344   -3.2019   -0.8914 H   0  0  0  0  0  0  0  0  0  0  0  0
    2.2336   -3.2059    0.8854 H   0  0  0  0  0  0  0  0  0  0  0  0
    3.7589   -3.0836   -0.0020 H   0  0  0  0  0  0  0  0  0  0  0  0
  1  2  2  0  0  0  0
  1  6  1  0  0  0  0
  1  7  1  0  0  0  0
  2  3  1  0  0  0  0
  2  8  1  0  0  0  0
  3  4  2  0  0  0  0
  3  9  1  0  0  0  0
  4  5  1  0  0  0  0
  4 10  1  0  0  0  0
  5  6  2  0  0  0  0
  5 11  1  0  0  0  0
  6 12  1  0  0  0  0
 13 10  1  0  0  0  0
 14 10  1  0  0  0  0
 15 10  1  0  0  0  0
 16 15  1  0  0  0  0
 17 15  1  0  0  0  0
 18 15  1  0  0  0  0
 19 12  1  0  0  0  0
 20 12  1  0  0  0  0
 21 12  1  0  0  0  0
 22 21  1  0  0  0  0
 23 21  1  0  0  0  0
 24 21  1  0  0  0  0
M  END
