http://cactus.nci.nih.gov/chemical/structure/methyl%20butyrate/file?format=sdf&get3d=True
__Jmol-12_10201116263D 1   1.00000     0.00000     0
Jmol version 12.1.38_dev  2011-02-16 08:29 EXTRACT: ({0:16})
 17 16  0  0  0  0              1 V2000
   0.54620   0.00600  -0.00210 C   0  0  0  0  0  0
  -0.80990  -0.65140  -0.00190 C   0  0  0  0  0  0
  -1.89800   0.42410   0.00080 C   0  0  0  0  0  0
  -3.27480  -0.24330   0.00100 C   0  0  0  0  0  0
   0.63340   1.21110  -0.00030 O   0  0  0  0  0  0
   1.65720  -0.74730   0.00120 O   0  0  0  0  0  0
   2.92880  -0.04640   0.00080 C   0  0  0  0  0  0
  -0.91350  -1.27090  -0.89280 H   0  0  0  0  0  0
  -0.91180  -1.27370   0.88720 H   0  0  0  0  0  0
  -1.79440   1.04360   0.89170 H   0  0  0  0  0  0
  -1.79610   1.04640  -0.88830 H   0  0  0  0  0  0
  -3.37840  -0.86270  -0.88980 H   0  0  0  0  0  0
  -3.37680  -0.86550   0.89010 H   0  0  0  0  0  0
  -4.05000   0.52300   0.00300 H   0  0  0  0  0  0
   3.00000   0.57650  -0.89080 H   0  0  0  0  0  0
   2.99800   0.58140   0.88910 H   0  0  0  0  0  0
   3.74310  -0.77100   0.00370 H   0  0  0  0  0  0
  1  2  1  0  0  0
  2  3  1  0  0  0
  3  4  1  0  0  0
  1  5  2  0  0  0
  1  6  1  0  0  0
  6  7  1  0  0  0
  2  8  1  0  0  0
  2  9  1  0  0  0
  3 10  1  0  0  0
  3 11  1  0  0  0
  4 12  1  0  0  0
  4 13  1  0  0  0
  4 14  1  0  0  0
  7 15  1  0  0  0
  7 16  1  0  0  0
  7 17  1  0  0  0
M  END
