http://cactus.nci.nih.gov/chemical/structure/METHYL%20PROPIONATE/file?format=sdf&get3d=True
__Jmol-12_10201115503D 1   1.00000     0.00000     0
Jmol version 12.1.38_dev  2011-02-16 08:29 EXTRACT: ({0:13})
 14 13  0  0  0  0              1 V2000
   0.01240  -0.03950  -0.00200 C   0  0  0  0  0  0
  -1.28510  -0.80600  -0.00120 C   0  0  0  0  0  0
  -2.45790   0.17660   0.00150 C   0  0  0  0  0  0
   0.00030   1.16870  -0.00040 O   0  0  0  0  0  0
   1.18150  -0.69900   0.00130 O   0  0  0  0  0  0
   2.39130   0.10390   0.00030 C   0  0  0  0  0  0
  -1.33780  -1.43210  -0.89200 H   0  0  0  0  0  0
  -1.33550  -1.43430   0.88800 H   0  0  0  0  0  0
  -2.40530   0.80270   0.89220 H   0  0  0  0  0  0
  -2.40760   0.80490  -0.88770 H   0  0  0  0  0  0
  -3.39640  -0.37780   0.00210 H   0  0  0  0  0  0
   2.41090   0.73040  -0.89140 H   0  0  0  0  0  0
   2.40890   0.73550   0.88850 H   0  0  0  0  0  0
   3.26230  -0.55140   0.00320 H   0  0  0  0  0  0
  1  2  1  0  0  0
  2  3  1  0  0  0
  1  4  2  0  0  0
  1  5  1  0  0  0
  5  6  1  0  0  0
  2  7  1  0  0  0
  2  8  1  0  0  0
  3  9  1  0  0  0
  3 10  1  0  0  0
  3 11  1  0  0  0
  6 12  1  0  0  0
  6 13  1  0  0  0
  6 14  1  0  0  0
M  END
