http://cactus.nci.nih.gov/chemical/structure/METHYL%20N-HEPTYL%20KETONE/file?format=sdf&get3d=True
__Jmol-12_10201115503D 1   1.00000     0.00000     0
Jmol version 12.1.38_dev  2011-02-16 08:29 EXTRACT: ({0:27})
 28 27  0  0  0  0              1 V2000
   0.90300  -0.23980   0.00000 C   0  0  0  0  0  0
  -0.40090   0.56080   0.00000 C   0  0  0  0  0  0
   2.09240   0.72270   0.00000 C   0  0  0  0  0  0
  -1.59020  -0.40170   0.00000 C   0  0  0  0  0  0
  -2.89410   0.39880   0.00000 C   0  0  0  0  0  0
  -4.08340  -0.56370   0.00000 C   0  0  0  0  0  0
   4.70160   0.65220   0.00000 C   0  0  0  0  0  0
  -5.38730   0.23680   0.00000 C   0  0  0  0  0  0
   3.34400  -1.27290   0.00000 O   0  0  0  0  0  0
   3.37660  -0.06580   0.00000 C   0  0  0  0  0  0
   0.94380  -0.86770   0.89000 H   0  0  0  0  0  0
   0.94380  -0.86770  -0.89000 H   0  0  0  0  0  0
  -0.44160   1.18870   0.89000 H   0  0  0  0  0  0
  -0.44160   1.18870  -0.89000 H   0  0  0  0  0  0
   2.05160   1.35070  -0.89000 H   0  0  0  0  0  0
   2.05160   1.35070   0.89000 H   0  0  0  0  0  0
  -1.54940  -1.02970  -0.89000 H   0  0  0  0  0  0
  -1.54940  -1.02970   0.89000 H   0  0  0  0  0  0
  -2.93490   1.02680   0.89000 H   0  0  0  0  0  0
  -2.93490   1.02680  -0.89000 H   0  0  0  0  0  0
   4.53150   1.72890   0.00000 H   0  0  0  0  0  0
   5.26590   0.37360   0.89000 H   0  0  0  0  0  0
   5.26590   0.37360  -0.89000 H   0  0  0  0  0  0
  -4.04260  -1.19170  -0.89000 H   0  0  0  0  0  0
  -4.04260  -1.19170   0.89000 H   0  0  0  0  0  0
  -5.42810   0.86480   0.89000 H   0  0  0  0  0  0
  -5.42810   0.86480  -0.89000 H   0  0  0  0  0  0
  -6.23460  -0.44890   0.00000 H   0  0  0  0  0  0
  1  2  1  0  0  0
  1  3  1  0  0  0
  2  4  1  0  0  0
  3 10  1  0  0  0
  4  5  1  0  0  0
  7 10  1  0  0  0
  9 10  2  0  0  0
  5  6  1  0  0  0
  6  8  1  0  0  0
  1 11  1  0  0  0
  1 12  1  0  0  0
  2 13  1  0  0  0
  2 14  1  0  0  0
  3 15  1  0  0  0
  3 16  1  0  0  0
  4 17  1  0  0  0
  4 18  1  0  0  0
  5 19  1  0  0  0
  5 20  1  0  0  0
  7 21  1  0  0  0
  7 22  1  0  0  0
  7 23  1  0  0  0
  6 24  1  0  0  0
  6 25  1  0  0  0
  8 26  1  0  0  0
  8 27  1  0  0  0
  8 28  1  0  0  0
M  END
