http://cactus.nci.nih.gov/chemical/structure/METHYL%20SEC-BUTYL%20ETHER/file?format=sdf&get3d=True
__Jmol-12_10201115513D 1   1.00000     0.00000     0
Jmol version 12.1.38_dev  2011-02-16 08:29 EXTRACT: ({0:17})
 18 17  0  0  0  0              1 V2000
  -0.03520  -0.42660   0.26650 C   0  0  0  0  0  0
  -0.62200  -1.82320   0.05180 C   0  0  0  0  0  0
   1.42800  -0.41390  -0.18030 C   0  0  0  0  0  0
   2.05010   0.94460   0.14890 C   0  0  0  0  0  0
  -0.77590   0.52430  -0.50110 O   0  0  0  0  0  0
  -1.88530   1.09570   0.19520 C   0  0  0  0  0  0
  -0.09470  -0.16600   1.32320 H   0  0  0  0  0  0
  -0.56250  -2.08380  -1.00490 H   0  0  0  0  0  0
  -0.05700  -2.54860   0.63730 H   0  0  0  0  0  0
  -1.66440  -1.83230   0.37010 H   0  0  0  0  0  0
   1.97410  -1.19970   0.34160 H   0  0  0  0  0  0
   1.48120  -0.58700  -1.25520 H   0  0  0  0  0  0
   1.50400   1.73030  -0.37300 H   0  0  0  0  0  0
   1.99690   1.11760   1.22380 H   0  0  0  0  0  0
   3.09250   0.95360  -0.16940 H   0  0  0  0  0  0
  -2.57860   0.30580   0.48440 H   0  0  0  0  0  0
  -1.52840   1.61040   1.08730 H   0  0  0  0  0  0
  -2.39520   1.80660  -0.45490 H   0  0  0  0  0  0
  1  2  1  0  0  0
  1  3  1  0  0  0
  3  4  1  0  0  0
  1  5  1  0  0  0
  5  6  1  0  0  0
  1  7  1  0  0  0
  2  8  1  0  0  0
  2  9  1  0  0  0
  2 10  1  0  0  0
  3 11  1  0  0  0
  3 12  1  0  0  0
  4 13  1  0  0  0
  4 14  1  0  0  0
  4 15  1  0  0  0
  6 16  1  0  0  0
  6 17  1  0  0  0
  6 18  1  0  0  0
M  END
