file:/home/renata/glycerol/METHYLOLEATE.mol
__Jmol-12_04241415153D 1   1.00000     0.00000     0
Jmol version 12.3.28  2012-05-30 15:29 EXTRACT: ({0:56})
 57 56  0  0  0  0              1 V2000
  -0.61640  -0.07000  -0.23850 C   0  0  0  0  0  0
  -0.48570   0.90880  -0.96260 O   0  0  0  0  0  0
  -1.75500  -0.39870   0.42900 O   0  0  0  0  0  0
   0.50880  -1.02430   0.08250 C   0  0  0  0  0  0
  -2.85030   0.48280   0.17750 C   0  0  0  0  0  0
  -3.72410   0.09820   0.71060 H   0  0  0  0  0  0
  -3.08440   0.51320  -0.89150 H   0  0  0  0  0  0
  -2.62630   1.48540   0.55460 H   0  0  0  0  0  0
   0.93260  -0.74370   1.05270 H   0  0  0  0  0  0
   1.28470  -0.87480  -0.67800 H   0  0  0  0  0  0
   0.07320  -2.48890   0.08160 C   0  0  0  0  0  0
  -0.52230  -2.69920  -0.81560 H   0  0  0  0  0  0
  -0.57580  -2.68260   0.94440 H   0  0  0  0  0  0
   1.28120  -3.42540   0.12520 C   0  0  0  0  0  0
   1.90330  -3.18760   0.99680 H   0  0  0  0  0  0
   1.89850  -3.26010  -0.76630 H   0  0  0  0  0  0
   0.85530  -4.89370   0.19120 C   0  0  0  0  0  0
   0.14560  -5.11090  -0.61630 H   0  0  0  0  0  0
   0.33650  -5.08280   1.13870 H   0  0  0  0  0  0
   2.06490  -5.82080   0.06320 C   0  0  0  0  0  0
   2.80740  -5.56900   0.83050 H   0  0  0  0  0  0
   2.54150  -5.65810  -0.91120 H   0  0  0  0  0  0
   1.67260  -7.29360   0.20530 C   0  0  0  0  0  0
   0.83730  -7.52310  -0.46820 H   0  0  0  0  0  0
   1.32190  -7.47910   1.22830 H   0  0  0  0  0  0
   2.85830  -8.20730  -0.12420 C   0  0  0  0  0  0
   3.72550  -7.87930   0.45970 H   0  0  0  0  0  0
   3.11140  -8.09820  -1.18530 H   0  0  0  0  0  0
   2.55110  -9.65410   0.15020 C   0  0  0  0  0  0
   3.42230 -10.57200   0.60260 C   0  0  0  0  0  0
   4.88800 -10.34670   0.85400 C   0  0  0  0  0  0
   5.02830 -10.10170   1.91340 H   0  0  0  0  0  0
   5.25390  -9.49750   0.26610 H   0  0  0  0  0  0
   5.73030 -11.57990   0.50800 C   0  0  0  0  0  0
   1.52410  -9.97200  -0.02570 H   0  0  0  0  0  0
   3.04790 -11.57650   0.79610 H   0  0  0  0  0  0
   5.50440 -11.92180  -0.50990 H   0  0  0  0  0  0
   5.47300 -12.40120   1.18860 H   0  0  0  0  0  0
   7.22340 -11.26240   0.61770 C   0  0  0  0  0  0
   7.43340 -10.81050   1.59480 H   0  0  0  0  0  0
   7.49060 -10.51940  -0.14410 H   0  0  0  0  0  0
   8.09040 -12.51020   0.44410 C   0  0  0  0  0  0
   7.85670 -12.99910  -0.50930 H   0  0  0  0  0  0
   7.86080 -13.22690   1.24180 H   0  0  0  0  0  0
   9.57670 -12.14840   0.48500 C   0  0  0  0  0  0
   9.79390 -11.58820   1.40270 H   0  0  0  0  0  0
   9.81330 -11.48830  -0.35860 H   0  0  0  0  0  0
  10.46550 -13.39130   0.42940 C   0  0  0  0  0  0
  10.24330 -13.96630  -0.47760 H   0  0  0  0  0  0
  10.24300 -14.03880   1.28630 H   0  0  0  0  0  0
  11.94600 -13.00900   0.44570 C   0  0  0  0  0  0
  12.16650 -12.40700   1.33510 H   0  0  0  0  0  0
  12.17900 -12.39100  -0.42930 H   0  0  0  0  0  0
  12.84230 -14.23670   0.44280 C   0  0  0  0  0  0
  12.66580 -14.85030  -0.44620 H   0  0  0  0  0  0
  12.66350 -14.85410   1.32890 H   0  0  0  0  0  0
  13.89490 -13.93660   0.44560 H   0  0  0  0  0  0
  1  2  2  0  0  0
  3  1  1  0  0  0
  4  1  1  0  0  0
  5  3  1  0  0  0
  6  5  1  0  0  0
  7  5  1  0  0  0
  8  5  1  0  0  0
  9  4  1  0  0  0
 10  4  1  0  0  0
 11  4  1  0  0  0
 12 11  1  0  0  0
 13 11  1  0  0  0
 14 11  1  0  0  0
 15 14  1  0  0  0
 16 14  1  0  0  0
 17 14  1  0  0  0
 18 17  1  0  0  0
 19 17  1  0  0  0
 20 17  1  0  0  0
 21 20  1  0  0  0
 22 20  1  0  0  0
 23 20  1  0  0  0
 24 23  1  0  0  0
 25 23  1  0  0  0
 26 23  1  0  0  0
 27 26  1  0  0  0
 28 26  1  0  0  0
 29 26  1  0  0  0
 30 29  2  0  0  0
 31 30  1  0  0  0
 32 31  1  0  0  0
 33 31  1  0  0  0
 34 31  1  0  0  0
 35 29  1  0  0  0
 36 30  1  0  0  0
 37 34  1  0  0  0
 38 34  1  0  0  0
 39 34  1  0  0  0
 40 39  1  0  0  0
 41 39  1  0  0  0
 42 39  1  0  0  0
 43 42  1  0  0  0
 44 42  1  0  0  0
 45 42  1  0  0  0
 46 45  1  0  0  0
 47 45  1  0  0  0
 48 45  1  0  0  0
 49 48  1  0  0  0
 50 48  1  0  0  0
 51 48  1  0  0  0
 52 51  1  0  0  0
 53 51  1  0  0  0
 54 51  1  0  0  0
 55 54  1  0  0  0
 56 54  1  0  0  0
 57 54  1  0  0  0
M  END
