http://cactus.nci.nih.gov/chemical/structure/BUTYLCYCLOHEXANE/file?format=sdf&get3d=True
__Jmol-12_03301209493D 1   1.00000     0.00000     0
Jmol version 12.1.38_dev  2011-02-16 08:29 EXTRACT: ({0:29})
 30 30  0  0  0  0              1 V2000
  -0.89470  -0.83110  -0.25420 C   0  0  0  0  0  0
  -1.99660   0.10950   0.23800 C   0  0  0  0  0  0
  -3.35200  -0.37940  -0.27670 C   0  0  0  0  0  0
  -4.45380   0.56110   0.21550 C   0  0  0  0  0  0
   0.46060  -0.34220   0.26040 C   0  0  0  0  0  0
   1.54610  -1.34880  -0.12600 C   0  0  0  0  0  0
   2.90150  -0.85990   0.38870 C   0  0  0  0  0  0
   3.22280   0.50050  -0.23350 C   0  0  0  0  0  0
   2.13730   1.50710   0.15280 C   0  0  0  0  0  0
   0.78190   1.01820  -0.36180 C   0  0  0  0  0  0
  -1.08320  -1.83790   0.11840 H   0  0  0  0  0  0
  -0.88690  -0.84260  -1.34410 H   0  0  0  0  0  0
  -2.00440   0.12100   1.32790 H   0  0  0  0  0  0
  -1.80810   1.11630  -0.13470 H   0  0  0  0  0  0
  -3.34410  -0.39090  -1.36660 H   0  0  0  0  0  0
  -3.54040  -1.38630   0.09600 H   0  0  0  0  0  0
  -4.26530   1.56790  -0.15710 H   0  0  0  0  0  0
  -5.41940   0.21280  -0.15110 H   0  0  0  0  0  0
  -4.46160   0.57260   1.30540 H   0  0  0  0  0  0
   0.42400  -0.24590   1.34550 H   0  0  0  0  0  0
   1.31730  -2.31790   0.31730 H   0  0  0  0  0  0
   1.58270  -1.44510  -1.21110 H   0  0  0  0  0  0
   2.86490  -0.76360   1.47380 H   0  0  0  0  0  0
   3.67490  -1.57700   0.11340 H   0  0  0  0  0  0
   4.18840   0.84880   0.13310 H   0  0  0  0  0  0
   3.25940   0.40420  -1.31860 H   0  0  0  0  0  0
   2.10070   1.60340   1.23800 H   0  0  0  0  0  0
   2.36610   2.47630  -0.29040 H   0  0  0  0  0  0
   0.81850   0.92190  -1.44690 H   0  0  0  0  0  0
   0.00860   1.73540  -0.08650 H   0  0  0  0  0  0
  1  2  1  0  0  0
  2  3  1  0  0  0
  3  4  1  0  0  0
  1  5  1  0  0  0
  5  6  1  0  0  0
  6  7  1  0  0  0
  7  8  1  0  0  0
  8  9  1  0  0  0
  9 10  1  0  0  0
  5 10  1  0  0  0
  1 11  1  0  0  0
  1 12  1  0  0  0
  2 13  1  0  0  0
  2 14  1  0  0  0
  3 15  1  0  0  0
  3 16  1  0  0  0
  4 17  1  0  0  0
  4 18  1  0  0  0
  4 19  1  0  0  0
  5 20  1  0  0  0
  6 21  1  0  0  0
  6 22  1  0  0  0
  7 23  1  0  0  0
  7 24  1  0  0  0
  8 25  1  0  0  0
  8 26  1  0  0  0
  9 27  1  0  0  0
  9 28  1  0  0  0
 10 29  1  0  0  0
 10 30  1  0  0  0
M  END
