http://cactus.nci.nih.gov/chemical/structure/BUTYL%20VALERATE/file?format=sdf&get3d=True
__Jmol-12_10201115523D 1   1.00000     0.00000     0
Jmol version 12.1.38_dev  2011-02-16 08:29 EXTRACT: ({0:28})
 29 28  0  0  0  0              1 V2000
  -0.52450   0.10310  -0.00380 C   0  0  0  0  0  0
  -1.77500  -0.73800  -0.00350 C   0  0  0  0  0  0
  -3.00320   0.17420   0.00040 C   0  0  0  0  0  0
  -4.27280  -0.67970   0.00070 C   0  0  0  0  0  0
  -5.50100   0.23260   0.00460 C   0  0  0  0  0  0
  -0.60730   1.30850  -0.00110 O   0  0  0  0  0  0
   0.68120  -0.48690  -0.00140 O   0  0  0  0  0  0
   1.84190   0.38550  -0.00180 C   0  0  0  0  0  0
   3.11620  -0.46130   0.00110 C   0  0  0  0  0  0
   4.33930   0.45790   0.00060 C   0  0  0  0  0  0
   5.61370  -0.38880   0.00350 C   0  0  0  0  0  0
  -1.79110  -1.36530  -0.89480 H   0  0  0  0  0  0
  -1.78820  -1.36910   0.88510 H   0  0  0  0  0  0
  -2.98710   0.80150   0.89170 H   0  0  0  0  0  0
  -2.99000   0.80530  -0.88820 H   0  0  0  0  0  0
  -4.28890  -1.30690  -0.89060 H   0  0  0  0  0  0
  -4.28600  -1.31070   0.88930 H   0  0  0  0  0  0
  -6.40550  -0.37580   0.00480 H   0  0  0  0  0  0
  -5.48490   0.85980   0.89590 H   0  0  0  0  0  0
  -5.48780   0.86360  -0.88400 H   0  0  0  0  0  0
   1.82460   1.01290  -0.89300 H   0  0  0  0  0  0
   1.82270   1.01610   0.88700 H   0  0  0  0  0  0
   3.13360  -1.08870   0.89220 H   0  0  0  0  0  0
   3.13540  -1.09200  -0.88770 H   0  0  0  0  0  0
   4.32200   1.08530  -0.89050 H   0  0  0  0  0  0
   4.32010   1.08860   0.88940 H   0  0  0  0  0  0
   5.63280  -1.01950  -0.88530 H   0  0  0  0  0  0
   6.48500   0.26600   0.00320 H   0  0  0  0  0  0
   5.63100  -1.01620   0.89470 H   0  0  0  0  0  0
  1  2  1  0  0  0
  2  3  1  0  0  0
  3  4  1  0  0  0
  4  5  1  0  0  0
  1  6  2  0  0  0
  1  7  1  0  0  0
  7  8  1  0  0  0
  8  9  1  0  0  0
  9 10  1  0  0  0
 10 11  1  0  0  0
  2 12  1  0  0  0
  2 13  1  0  0  0
  3 14  1  0  0  0
  3 15  1  0  0  0
  4 16  1  0  0  0
  4 17  1  0  0  0
  5 18  1  0  0  0
  5 19  1  0  0  0
  5 20  1  0  0  0
  8 21  1  0  0  0
  8 22  1  0  0  0
  9 23  1  0  0  0
  9 24  1  0  0  0
 10 25  1  0  0  0
 10 26  1  0  0  0
 11 27  1  0  0  0
 11 28  1  0  0  0
 11 29  1  0  0  0
M  END
