Butanenitrile, ID: C109740
  NIST    04042217083D 1   1.00000     0.00000      
NIST Chemistry WebBook
 12 11  0     0  0              1 V2000
    1.7282    1.0804    0.8688 C   0  0  0  0  0  0           0  0  0
    3.2345    1.3090    0.8612 C   0  0  0  0  0  0           0  0  0
    3.5754    2.7147    0.7742 C   0  0  0  0  0  0           0  0  0
    1.0806    1.5345    2.1573 C   0  0  0  0  0  0           0  0  0
    3.8561    3.8370    0.6993 N   0  0  0  0  0  0           0  0  0
    1.5361    0.0000    0.7151 H   0  0  0  0  0  0           0  0  0
    1.2604    1.5927    0.0053 H   0  0  0  0  0  0           0  0  0
    3.7028    0.8904    1.7753 H   0  0  0  0  0  0           0  0  0
    3.7026    0.7910    0.0000 H   0  0  0  0  0  0           0  0  0
    1.4970    1.0099    3.0278 H   0  0  0  0  0  0           0  0  0
    1.2214    2.6105    2.3258 H   0  0  0  0  0  0           0  0  0
    0.0000    1.3433    2.1448 H   0  0  0  0  0  0           0  0  0
  1  2  1  0     0  0
  1  4  1  0     0  0
  1  6  1  0     0  0
  1  7  1  0     0  0
  2  3  1  0     0  0
  2  8  1  0     0  0
  2  9  1  0     0  0
  3  5  3  0     0  0
  4 10  1  0     0  0
  4 11  1  0     0  0
  4 12  1  0     0  0
M  END
