http://cactus.nci.nih.gov/chemical/structure/N-ETHYLACETAMIDE/file?format=sdf&get3d=True
__Jmol-12_10201115533D 1   1.00000     0.00000     0
Jmol version 12.1.38_dev  2011-02-16 08:29 EXTRACT: ({0:14})
 15 14  0  0  0  0              1 V2000
  -1.39470  -0.45610   0.00000 C   0  0  0  0  0  0
  -2.69160   0.35570   0.00000 C   0  0  0  0  0  0
  -0.24790   0.45560   0.00000 N   0  0  0  0  0  0
   1.00590  -0.03870   0.00000 C   0  0  0  0  0  0
   2.18550   0.89910   0.00000 C   0  0  0  0  0  0
   1.18480  -1.23820   0.00000 O   0  0  0  0  0  0
  -1.35940  -1.08440   0.89000 H   0  0  0  0  0  0
  -1.35940  -1.08440  -0.89000 H   0  0  0  0  0  0
  -2.72690   0.98400  -0.89000 H   0  0  0  0  0  0
  -3.54480  -0.32260  -0.00000 H   0  0  0  0  0  0
  -2.72690   0.98400   0.89000 H   0  0  0  0  0  0
  -0.39110   1.41500   0.00000 H   0  0  0  0  0  0
   2.47000   1.12520   1.02770 H   0  0  0  0  0  0
   3.02380   0.42850  -0.51380 H   0  0  0  0  0  0
   1.91610   1.82190  -0.51380 H   0  0  0  0  0  0
  1  2  1  0  0  0
  1  3  1  0  0  0
  3  4  1  0  0  0
  4  5  1  0  0  0
  4  6  2  0  0  0
  1  7  1  0  0  0
  1  8  1  0  0  0
  2  9  1  0  0  0
  2 10  1  0  0  0
  2 11  1  0  0  0
  3 12  1  0  0  0
  5 13  1  0  0  0
  5 14  1  0  0  0
  5 15  1  0  0  0
M  END
