http://cactus.nci.nih.gov/chemical/structure/HEXACOSANE/file?format=sdf&get3d=True
__Jmol-12_12051310423D 1   1.00000     0.00000     0
Jmol version 12.3.28  2012-05-30 15:29 EXTRACT: ({0:79})
 80 79  0  0  0  0              1 V2000
  15.12953  -0.31648  -3.87777 C   0  0  0  0  0  0
  14.01409   0.44679  -3.16070 C   0  0  0  0  0  0
  12.70086  -0.32738  -3.29124 C   0  0  0  0  0  0
  11.58542   0.43590  -2.57418 C   0  0  0  0  0  0
  10.27220  -0.33818  -2.70467 C   0  0  0  0  0  0
   9.15686   0.42509  -1.98762 C   0  0  0  0  0  0
   7.84362  -0.34908  -2.11816 C   0  0  0  0  0  0
   6.72818   0.41419  -1.40110 C   0  0  0  0  0  0
   5.41496  -0.35989  -1.53159 C   0  0  0  0  0  0
   4.29952   0.40338  -0.81452 C   0  0  0  0  0  0
   2.98629  -0.37078  -0.94506 C   0  0  0  0  0  0
   1.87095   0.39249  -0.22802 C   0  0  0  0  0  0
   0.55771  -0.38168  -0.35856 C   0  0  0  0  0  0
  -0.55771   0.38168   0.35856 C   0  0  0  0  0  0
  -1.87095  -0.39249   0.22802 C   0  0  0  0  0  0
  -2.98629   0.37078   0.94506 C   0  0  0  0  0  0
  -4.29952  -0.40338   0.81452 C   0  0  0  0  0  0
  -5.41496   0.35989   1.53159 C   0  0  0  0  0  0
  -6.72818  -0.41419   1.40110 C   0  0  0  0  0  0
  -7.84362   0.34908   2.11816 C   0  0  0  0  0  0
  -9.15686  -0.42509   1.98762 C   0  0  0  0  0  0
 -10.27220   0.33818   2.70467 C   0  0  0  0  0  0
 -11.58542  -0.43590   2.57418 C   0  0  0  0  0  0
 -12.70086   0.32738   3.29124 C   0  0  0  0  0  0
 -14.01409  -0.44679   3.16070 C   0  0  0  0  0  0
 -15.12953   0.31648   3.87777 C   0  0  0  0  0  0
  15.24271  -1.30256  -3.42726 H   0  0  0  0  0  0
  14.87536  -0.42567  -4.93209 H   0  0  0  0  0  0
  16.06505   0.23498  -3.78480 H   0  0  0  0  0  0
  14.26826   0.55599  -2.10638 H   0  0  0  0  0  0
  13.90091   1.43287  -3.61121 H   0  0  0  0  0  0
  12.44668  -0.43657  -4.34556 H   0  0  0  0  0  0
  12.81404  -1.31346  -2.84073 H   0  0  0  0  0  0
  11.83959   0.54509  -1.51985 H   0  0  0  0  0  0
  11.47224   1.42198  -3.02469 H   0  0  0  0  0  0
  10.01812  -0.44738  -3.75901 H   0  0  0  0  0  0
  10.38548  -1.32426  -2.25418 H   0  0  0  0  0  0
   9.41093   0.53428  -0.93328 H   0  0  0  0  0  0
   9.04358   1.41117  -2.43811 H   0  0  0  0  0  0
   7.58945  -0.45827  -3.17248 H   0  0  0  0  0  0
   7.95680  -1.33516  -1.66765 H   0  0  0  0  0  0
   6.98236   0.52339  -0.34677 H   0  0  0  0  0  0
   6.61500   1.40027  -1.85161 H   0  0  0  0  0  0
   5.16078  -0.46917  -2.58596 H   0  0  0  0  0  0
   5.52813  -1.34606  -1.08112 H   0  0  0  0  0  0
   4.55370   0.51258   0.23980 H   0  0  0  0  0  0
   4.18634   1.38946  -1.26503 H   0  0  0  0  0  0
   2.73221  -0.47998  -1.99941 H   0  0  0  0  0  0
   3.09957  -1.35686  -0.49457 H   0  0  0  0  0  0
   2.12512   0.50168   0.82630 H   0  0  0  0  0  0
   1.75777   1.37857  -0.67853 H   0  0  0  0  0  0
   0.30354  -0.49087  -1.41288 H   0  0  0  0  0  0
   0.67089  -1.36776   0.09195 H   0  0  0  0  0  0
  -0.30354   0.49087   1.41288 H   0  0  0  0  0  0
  -0.67089   1.36776  -0.09195 H   0  0  0  0  0  0
  -2.12512  -0.50168  -0.82630 H   0  0  0  0  0  0
  -1.75777  -1.37857   0.67853 H   0  0  0  0  0  0
  -2.73221   0.47998   1.99941 H   0  0  0  0  0  0
  -3.09957   1.35686   0.49457 H   0  0  0  0  0  0
  -4.55370  -0.51258  -0.23980 H   0  0  0  0  0  0
  -4.18634  -1.38946   1.26503 H   0  0  0  0  0  0
  -5.16078   0.46917   2.58596 H   0  0  0  0  0  0
  -5.52813   1.34606   1.08112 H   0  0  0  0  0  0
  -6.98236  -0.52339   0.34677 H   0  0  0  0  0  0
  -6.61500  -1.40027   1.85161 H   0  0  0  0  0  0
  -7.58945   0.45827   3.17248 H   0  0  0  0  0  0
  -7.95680   1.33516   1.66765 H   0  0  0  0  0  0
  -9.41093  -0.53428   0.93328 H   0  0  0  0  0  0
  -9.04358  -1.41117   2.43811 H   0  0  0  0  0  0
 -10.01812   0.44738   3.75901 H   0  0  0  0  0  0
 -10.38548   1.32426   2.25418 H   0  0  0  0  0  0
 -11.83959  -0.54509   1.51985 H   0  0  0  0  0  0
 -11.47224  -1.42198   3.02469 H   0  0  0  0  0  0
 -12.44668   0.43657   4.34556 H   0  0  0  0  0  0
 -12.81404   1.31346   2.84073 H   0  0  0  0  0  0
 -14.26826  -0.55599   2.10638 H   0  0  0  0  0  0
 -13.90091  -1.43287   3.61121 H   0  0  0  0  0  0
 -14.87536   0.42567   4.93209 H   0  0  0  0  0  0
 -15.24271   1.30256   3.42726 H   0  0  0  0  0  0
 -16.06505  -0.23498   3.78480 H   0  0  0  0  0  0
  1  2  1  0  0  0
  2  3  1  0  0  0
  3  4  1  0  0  0
  4  5  1  0  0  0
  5  6  1  0  0  0
  6  7  1  0  0  0
  7  8  1  0  0  0
  8  9  1  0  0  0
  9 10  1  0  0  0
 10 11  1  0  0  0
 11 12  1  0  0  0
 12 13  1  0  0  0
 13 14  1  0  0  0
 14 15  1  0  0  0
 15 16  1  0  0  0
 16 17  1  0  0  0
 17 18  1  0  0  0
 18 19  1  0  0  0
 19 20  1  0  0  0
 20 21  1  0  0  0
 21 22  1  0  0  0
 22 23  1  0  0  0
 23 24  1  0  0  0
 24 25  1  0  0  0
 25 26  1  0  0  0
  1 27  1  0  0  0
  1 28  1  0  0  0
  1 29  1  0  0  0
  2 30  1  0  0  0
  2 31  1  0  0  0
  3 32  1  0  0  0
  3 33  1  0  0  0
  4 34  1  0  0  0
  4 35  1  0  0  0
  5 36  1  0  0  0
  5 37  1  0  0  0
  6 38  1  0  0  0
  6 39  1  0  0  0
  7 40  1  0  0  0
  7 41  1  0  0  0
  8 42  1  0  0  0
  8 43  1  0  0  0
  9 44  1  0  0  0
  9 45  1  0  0  0
 10 46  1  0  0  0
 10 47  1  0  0  0
 11 48  1  0  0  0
 11 49  1  0  0  0
 12 50  1  0  0  0
 12 51  1  0  0  0
 13 52  1  0  0  0
 13 53  1  0  0  0
 14 54  1  0  0  0
 14 55  1  0  0  0
 15 56  1  0  0  0
 15 57  1  0  0  0
 16 58  1  0  0  0
 16 59  1  0  0  0
 17 60  1  0  0  0
 17 61  1  0  0  0
 18 62  1  0  0  0
 18 63  1  0  0  0
 19 64  1  0  0  0
 19 65  1  0  0  0
 20 66  1  0  0  0
 20 67  1  0  0  0
 21 68  1  0  0  0
 21 69  1  0  0  0
 22 70  1  0  0  0
 22 71  1  0  0  0
 23 72  1  0  0  0
 23 73  1  0  0  0
 24 74  1  0  0  0
 24 75  1  0  0  0
 25 76  1  0  0  0
 25 77  1  0  0  0
 26 78  1  0  0  0
 26 79  1  0  0  0
 26 80  1  0  0  0
M  END
