http://cactus.nci.nih.gov/chemical/structure/N-METHYLACETAMIDE/file?format=sdf&get3d=True
__Jmol-12_10201115533D 1   1.00000     0.00000     0
Jmol version 12.1.38_dev  2011-02-16 08:29 EXTRACT: ({0:11})
 12 11  0  0  0  0              1 V2000
   1.96420   0.07150   0.00000 C   0  0  0  0  0  0
   0.64030   0.69880   0.00000 N   0  0  0  0  0  0
  -0.46850  -0.06750   0.00000 C   0  0  0  0  0  0
  -1.83030   0.57780   0.00000 C   0  0  0  0  0  0
  -0.37020  -1.27630   0.00000 O   0  0  0  0  0  0
   2.73260   0.84460   0.00000 H   0  0  0  0  0  0
   2.07250  -0.54840   0.89000 H   0  0  0  0  0  0
   2.07250  -0.54840  -0.89000 H   0  0  0  0  0  0
   0.56170   1.66560   0.00000 H   0  0  0  0  0  0
  -1.71860   1.66210   0.00000 H   0  0  0  0  0  0
  -2.37870   0.26910  -0.89000 H   0  0  0  0  0  0
  -2.37870   0.26910   0.89000 H   0  0  0  0  0  0
  1  2  1  0  0  0
  2  3  1  0  0  0
  3  4  1  0  0  0
  3  5  2  0  0  0
  1  6  1  0  0  0
  1  7  1  0  0  0
  1  8  1  0  0  0
  2  9  1  0  0  0
  4 10  1  0  0  0
  4 11  1  0  0  0
  4 12  1  0  0  0
M  END
