13387 N-methylpyrrolidone (http://www.chemspider.com/)
  Marvin  12300703363D          

 16 16  0  0  0  0            999 V2000
   -2.1930    0.6373   -0.4788 O   0  0  0  0  0  0  0  0  0  0  0  0
   -0.2936   -0.5496   -0.3376 N   0  0  0  0  0  0  0  0  0  0  0  0
    1.0848    1.0183    0.6955 C   0  0  0  0  0  0  0  0  0  0  0  0
    1.0592   -0.2789   -0.1336 C   0  0  0  0  0  0  0  0  0  0  0  0
   -0.3451    1.5637    0.5513 C   0  0  0  0  0  0  0  0  0  0  0  0
   -1.0247    0.5032   -0.1371 C   0  0  0  0  0  0  0  0  0  0  0  0
   -0.7553   -1.8299   -0.6895 C   0  0  0  0  0  0  0  0  0  0  0  0
    1.3086    0.7998    1.7440 H   0  0  0  0  0  0  0  0  0  0  0  0
    1.8325    1.7242    0.3240 H   0  0  0  0  0  0  0  0  0  0  0  0
    1.5533   -0.1352   -1.1004 H   0  0  0  0  0  0  0  0  0  0  0  0
    1.5823   -1.0781    0.4003 H   0  0  0  0  0  0  0  0  0  0  0  0
   -0.3675    2.4908   -0.0274 H   0  0  0  0  0  0  0  0  0  0  0  0
   -0.8120    1.7317    1.5263 H   0  0  0  0  0  0  0  0  0  0  0  0
   -0.5314   -2.5288    0.1198 H   0  0  0  0  0  0  0  0  0  0  0  0
   -0.2647   -2.1843   -1.5978 H   0  0  0  0  0  0  0  0  0  0  0  0
   -1.8333   -1.8844   -0.8592 H   0  0  0  0  0  0  0  0  0  0  0  0
  1  6  2  0  0  0  0
  2  4  1  0  0  0  0
  2  6  1  0  0  0  0
  2  7  1  0  0  0  0
  3  4  1  0  0  0  0
  3  5  1  0  0  0  0
  3  8  1  0  0  0  0
  3  9  1  0  0  0  0
  4 10  1  0  0  0  0
  4 11  1  0  0  0  0
  5  6  1  0  0  0  0
  5 12  1  0  0  0  0
  5 13  1  0  0  0  0
  7 14  1  0  0  0  0
  7 15  1  0  0  0  0
  7 16  1  0  0  0  0
M  END
$$$$
