http://cactus.nci.nih.gov/chemical/structure/N-TETRADECANOIC%20ACID/file?format=sdf&get3d=True
__Jmol-12_07041213583D 1   1.00000     0.00000     0
Jmol version 12.3.28  2012-05-30 15:29 EXTRACT: ({0:43})
 44 43  0  0  0  0              1 V2000
   0.71230  -0.56110   0.00000 C   0  0  0  0  0  0
  -0.50970   0.35950   0.00000 C   0  0  0  0  0  0
   1.98770   0.28410   0.00000 C   0  0  0  0  0  0
  -1.78500  -0.48580   0.00000 C   0  0  0  0  0  0
   3.20970  -0.63650   0.00000 C   0  0  0  0  0  0
  -3.00700   0.43490   0.00000 C   0  0  0  0  0  0
   4.48500   0.20880   0.00000 C   0  0  0  0  0  0
  -4.28230  -0.41040   0.00000 C   0  0  0  0  0  0
   5.70700  -0.71190   0.00000 C   0  0  0  0  0  0
  -5.50440   0.51020   0.00000 C   0  0  0  0  0  0
  -6.77970  -0.33500   0.00000 C   0  0  0  0  0  0
  -8.00170   0.58560   0.00000 C   0  0  0  0  0  0
  -9.27700  -0.25960   0.00000 C   0  0  0  0  0  0
   6.88870   1.32660   0.00000 O   0  0  0  0  0  0
   8.16480  -0.47750   0.00000 O   0  0  0  0  0  0
   6.96320   0.12070   0.00000 C   0  0  0  0  0  0
   8.94180   0.09820   0.00000 H   0  0  0  0  0  0
   0.69340  -1.19010   0.89000 H   0  0  0  0  0  0
   0.69340  -1.19010  -0.89000 H   0  0  0  0  0  0
  -0.49070   0.98850   0.89000 H   0  0  0  0  0  0
  -0.49070   0.98850  -0.89000 H   0  0  0  0  0  0
   2.00670   0.91320  -0.89000 H   0  0  0  0  0  0
   2.00670   0.91320   0.89000 H   0  0  0  0  0  0
  -1.80400  -1.11480  -0.89000 H   0  0  0  0  0  0
  -1.80400  -1.11480   0.89000 H   0  0  0  0  0  0
   3.19070  -1.26550   0.89000 H   0  0  0  0  0  0
   3.19070  -1.26550  -0.89000 H   0  0  0  0  0  0
  -2.98800   1.06390   0.89000 H   0  0  0  0  0  0
  -2.98800   1.06390  -0.89000 H   0  0  0  0  0  0
   4.50400   0.83780  -0.89000 H   0  0  0  0  0  0
   4.50400   0.83780   0.89000 H   0  0  0  0  0  0
  -4.30130  -1.03940  -0.89000 H   0  0  0  0  0  0
  -4.30130  -1.03940   0.89000 H   0  0  0  0  0  0
   5.68800  -1.34090   0.89000 H   0  0  0  0  0  0
   5.68800  -1.34090  -0.89000 H   0  0  0  0  0  0
  -5.48540   1.13930   0.89000 H   0  0  0  0  0  0
  -5.48540   1.13930  -0.89000 H   0  0  0  0  0  0
  -6.79870  -0.96400  -0.89000 H   0  0  0  0  0  0
  -6.79870  -0.96400   0.89000 H   0  0  0  0  0  0
  -7.98270   1.21460   0.89000 H   0  0  0  0  0  0
  -7.98270   1.21460  -0.89000 H   0  0  0  0  0  0
  -9.29600  -0.88870  -0.89000 H   0  0  0  0  0  0
  -9.29600  -0.88870   0.89000 H   0  0  0  0  0  0
 -10.14760   0.39620   0.00000 H   0  0  0  0  0  0
  1  2  1  0  0  0
  1  3  1  0  0  0
  2  4  1  0  0  0
  3  5  1  0  0  0
  4  6  1  0  0  0
  5  7  1  0  0  0
  6  8  1  0  0  0
  7  9  1  0  0  0
  8 10  1  0  0  0
  9 16  1  0  0  0
 10 11  1  0  0  0
 15 16  1  0  0  0
 14 16  2  0  0  0
 11 12  1  0  0  0
 12 13  1  0  0  0
  1 18  1  0  0  0
  1 19  1  0  0  0
  2 20  1  0  0  0
  2 21  1  0  0  0
  3 22  1  0  0  0
  3 23  1  0  0  0
  4 24  1  0  0  0
  4 25  1  0  0  0
  5 26  1  0  0  0
  5 27  1  0  0  0
  6 28  1  0  0  0
  6 29  1  0  0  0
  7 30  1  0  0  0
  7 31  1  0  0  0
  8 32  1  0  0  0
  8 33  1  0  0  0
  9 34  1  0  0  0
  9 35  1  0  0  0
 10 36  1  0  0  0
 10 37  1  0  0  0
 11 38  1  0  0  0
 11 39  1  0  0  0
 15 17  1  0  0  0
 12 40  1  0  0  0
 12 41  1  0  0  0
 13 42  1  0  0  0
 13 43  1  0  0  0
 13 44  1  0  0  0
M  END
