http://cactus.nci.nih.gov/chemical/structure/n-tetradecane/file?format=sdf&get3d=True
__Jmol-12_06131109063D 1   1.00000     0.00000     0
Jmol version 12.1.38_dev  2011-02-16 08:29 EXTRACT: ({0:43})
 44 43  0  0  0  0              1 V2000
   8.12480  -0.34270   0.00000 C   0  0  0  0  0  0
   6.86490   0.52530   0.00000 C   0  0  0  0  0  0
   5.62650  -0.37320   0.00000 C   0  0  0  0  0  0
   4.36660   0.49490   0.00000 C   0  0  0  0  0  0
   3.12820  -0.40360   0.00000 C   0  0  0  0  0  0
   1.86830   0.46450   0.00000 C   0  0  0  0  0  0
   0.63000  -0.43400   0.00000 C   0  0  0  0  0  0
  -0.63000   0.43400   0.00000 C   0  0  0  0  0  0
  -1.86830  -0.46450   0.00000 C   0  0  0  0  0  0
  -3.12820   0.40360   0.00000 C   0  0  0  0  0  0
  -4.36660  -0.49490   0.00000 C   0  0  0  0  0  0
  -5.62650   0.37320   0.00000 C   0  0  0  0  0  0
  -6.86490  -0.52530   0.00000 C   0  0  0  0  0  0
  -8.12480   0.34270   0.00000 C   0  0  0  0  0  0
   8.13250  -0.97200   0.89000 H   0  0  0  0  0  0
   8.13250  -0.97200  -0.89000 H   0  0  0  0  0  0
   9.00710   0.29740   0.00000 H   0  0  0  0  0  0
   6.85730   1.15460   0.89000 H   0  0  0  0  0  0
   6.85730   1.15460  -0.89000 H   0  0  0  0  0  0
   5.63420  -1.00240  -0.89000 H   0  0  0  0  0  0
   5.63420  -1.00240   0.89000 H   0  0  0  0  0  0
   4.35900   1.12420   0.89000 H   0  0  0  0  0  0
   4.35900   1.12420  -0.89000 H   0  0  0  0  0  0
   3.13590  -1.03290  -0.89000 H   0  0  0  0  0  0
   3.13590  -1.03290   0.89000 H   0  0  0  0  0  0
   1.86070   1.09370   0.89000 H   0  0  0  0  0  0
   1.86070   1.09370  -0.89000 H   0  0  0  0  0  0
   0.63760  -1.06330  -0.89000 H   0  0  0  0  0  0
   0.63760  -1.06330   0.89000 H   0  0  0  0  0  0
  -0.63760   1.06330   0.89000 H   0  0  0  0  0  0
  -0.63760   1.06330  -0.89000 H   0  0  0  0  0  0
  -1.86070  -1.09370  -0.89000 H   0  0  0  0  0  0
  -1.86070  -1.09370   0.89000 H   0  0  0  0  0  0
  -3.13590   1.03290   0.89000 H   0  0  0  0  0  0
  -3.13590   1.03290  -0.89000 H   0  0  0  0  0  0
  -4.35900  -1.12420  -0.89000 H   0  0  0  0  0  0
  -4.35900  -1.12420   0.89000 H   0  0  0  0  0  0
  -5.63420   1.00240   0.89000 H   0  0  0  0  0  0
  -5.63420   1.00240  -0.89000 H   0  0  0  0  0  0
  -6.85730  -1.15460  -0.89000 H   0  0  0  0  0  0
  -6.85730  -1.15460   0.89000 H   0  0  0  0  0  0
  -9.00710  -0.29740   0.00000 H   0  0  0  0  0  0
  -8.13250   0.97200   0.89000 H   0  0  0  0  0  0
  -8.13250   0.97200  -0.89000 H   0  0  0  0  0  0
  1  2  1  0  0  0
  2  3  1  0  0  0
  3  4  1  0  0  0
  4  5  1  0  0  0
  5  6  1  0  0  0
  6  7  1  0  0  0
  7  8  1  0  0  0
  8  9  1  0  0  0
  9 10  1  0  0  0
 10 11  1  0  0  0
 11 12  1  0  0  0
 12 13  1  0  0  0
 13 14  1  0  0  0
  1 15  1  0  0  0
  1 16  1  0  0  0
  1 17  1  0  0  0
  2 18  1  0  0  0
  2 19  1  0  0  0
  3 20  1  0  0  0
  3 21  1  0  0  0
  4 22  1  0  0  0
  4 23  1  0  0  0
  5 24  1  0  0  0
  5 25  1  0  0  0
  6 26  1  0  0  0
  6 27  1  0  0  0
  7 28  1  0  0  0
  7 29  1  0  0  0
  8 30  1  0  0  0
  8 31  1  0  0  0
  9 32  1  0  0  0
  9 33  1  0  0  0
 10 34  1  0  0  0
 10 35  1  0  0  0
 11 36  1  0  0  0
 11 37  1  0  0  0
 12 38  1  0  0  0
 12 39  1  0  0  0
 13 40  1  0  0  0
 13 41  1  0  0  0
 14 42  1  0  0  0
 14 43  1  0  0  0
 14 44  1  0  0  0
M  END
