Pentanenitrile, ID: C110598
  NIST    04042217083D 1   1.00000     0.00000      
NIST Chemistry WebBook
 15 14  0     0  0              1 V2000
    4.5827    1.1283    0.9078 C   0  0  0  0  0  0           0  0  0
    3.2274    1.8213    0.9758 C   0  0  0  0  0  0           0  0  0
    2.1368    0.8345    1.3625 C   0  0  0  0  0  0           0  0  0
    5.6318    2.0611    0.5518 C   0  0  0  0  0  0           0  0  0
    0.7854    1.5088    1.4313 C   0  0  0  0  0  0           0  0  0
    6.4731    2.8062    0.2676 N   0  0  0  0  0  0           0  0  0
    4.5719    0.3082    0.1612 H   0  0  0  0  0  0           0  0  0
    4.8399    0.6631    1.8813 H   0  0  0  0  0  0           0  0  0
    2.9870    2.2882    0.0000 H   0  0  0  0  0  0           0  0  0
    3.2596    2.6548    1.7055 H   0  0  0  0  0  0           0  0  0
    2.3782    0.3687    2.3388 H   0  0  0  0  0  0           0  0  0
    2.1073    0.0000    0.6337 H   0  0  0  0  0  0           0  0  0
    0.7743    2.3198    2.1717 H   0  0  0  0  0  0           0  0  0
    0.5009    1.9456    0.4648 H   0  0  0  0  0  0           0  0  0
    0.0000    0.7960    1.7133 H   0  0  0  0  0  0           0  0  0
  1  2  1  0     0  0
  1  4  1  0     0  0
  1  7  1  0     0  0
  1  8  1  0     0  0
  2  3  1  0     0  0
  2  9  1  0     0  0
  2 10  1  0     0  0
  3  5  1  0     0  0
  3 11  1  0     0  0
  3 12  1  0     0  0
  4  6  3  0     0  0
  5 13  1  0     0  0
  5 14  1  0     0  0
  5 15  1  0     0  0
M  END
