http://cactus.nci.nih.gov/chemical/structure/nitrobenzene%20%20/file?format=sdf&get3d=True
__Jmol-12_05171114343D 1   1.00000     0.00000     0
Jmol version 12.1.38_dev  2011-02-16 08:29 EXTRACT: ({0:13})
 14 14  0  0  0  0              1 V2000
   1.65460   0.00000   0.00100 N   0  3  0  0  0  0
   2.26360  -1.05480   0.00160 O   0  0  0  0  0  0
   2.26360   1.05480  -0.00400 O   0  5  0  0  0  0
   0.17440   0.00000   0.00000 C   0  0  0  0  0  0
  -0.51680  -1.19710  -0.00010 C   0  0  0  0  0  0
  -1.89910  -1.19710  -0.00100 C   0  0  0  0  0  0
  -2.59030  -0.00000  -0.00140 C   0  0  0  0  0  0
  -1.89910   1.19710  -0.00040 C   0  0  0  0  0  0
  -0.51680   1.19710   0.00490 C   0  0  0  0  0  0
   0.02320  -2.13250   0.00020 H   0  0  0  0  0  0
  -2.43910  -2.13250  -0.00180 H   0  0  0  0  0  0
  -3.67030  -0.00000  -0.00280 H   0  0  0  0  0  0
  -2.43910   2.13250  -0.00110 H   0  0  0  0  0  0
   0.02320   2.13240   0.00570 H   0  0  0  0  0  0
  1  2  2  0  0  0
  1  3  1  0  0  0
  1  4  1  0  0  0
  4  5  2  0  0  0
  5  6  1  0  0  0
  6  7  2  0  0  0
  7  8  1  0  0  0
  8  9  2  0  0  0
  4  9  1  0  0  0
  5 10  1  0  0  0
  6 11  1  0  0  0
  7 12  1  0  0  0
  8 13  1  0  0  0
  9 14  1  0  0  0
M  END
