http://cactus.nci.nih.gov/chemical/structure/O-DICHLOROBENZENE/file?format=sdf&get3d=True
__Jmol-12_10201115543D 1   1.00000     0.00000     0
Jmol version 12.1.38_dev  2011-02-16 08:29 EXTRACT: ({0:11})
 12 12  0  0  0  0              1 V2000
   1.27390  -1.38320   0.00040 C   0  0  0  0  0  0
   1.27390   1.38310  -0.00050 C   0  0  0  0  0  0
   2.47070  -0.69110   0.00010 C   0  0  0  0  0  0
   2.47070   0.69110   0.00010 C   0  0  0  0  0  0
   0.07570  -0.69240   0.00020 C   0  0  0  0  0  0
   0.07570   0.69240  -0.00020 C   0  0  0  0  0  0
  -1.42740  -1.56090  -0.00010 Cl  0  0  0  0  0  0
  -1.42740   1.56090   0.00010 Cl  0  0  0  0  0  0
   1.27470  -2.46310  -0.00380 H   0  0  0  0  0  0
   1.27470   2.46310  -0.00050 H   0  0  0  0  0  0
   3.40620  -1.23080   0.00020 H   0  0  0  0  0  0
   3.40620   1.23080   0.00030 H   0  0  0  0  0  0
  5  6  1  0  0  0
  1  5  2  0  0  0
  5  7  1  0  0  0
  2  6  2  0  0  0
  6  8  1  0  0  0
  1  3  1  0  0  0
  2  4  1  0  0  0
  3  4  2  0  0  0
  1  9  1  0  0  0
  2 10  1  0  0  0
  3 11  1  0  0  0
  4 12  1  0  0  0
M  END
