http://cactus.nci.nih.gov/chemical/structure/P-DICHLOROBENZENE/file?format=sdf&get3d=True
__Jmol-12_10201115553D 1   1.00000     0.00000     0
Jmol version 12.1.38_dev  2011-02-16 08:29 EXTRACT: ({0:11})
 12 12  0  0  0  0              1 V2000
  -0.69100   1.19820  -0.00010 C   0  0  0  0  0  0
   0.69100   1.19820   0.00020 C   0  0  0  0  0  0
   0.69100  -1.19820   0.00080 C   0  0  0  0  0  0
  -0.69100  -1.19820  -0.00010 C   0  0  0  0  0  0
  -1.38280   0.00000  -0.00030 C   0  0  0  0  0  0
   1.38280   0.00000   0.00040 C   0  0  0  0  0  0
   3.11880   0.00000  -0.00030 Cl  0  0  0  0  0  0
  -3.11880   0.00000  -0.00020 Cl  0  0  0  0  0  0
  -1.23100   2.13350   0.00430 H   0  0  0  0  0  0
   1.23100   2.13350   0.00000 H   0  0  0  0  0  0
   1.23100  -2.13350   0.00090 H   0  0  0  0  0  0
  -1.23100  -2.13350  -0.00020 H   0  0  0  0  0  0
  1  5  2  0  0  0
  1  2  1  0  0  0
  4  5  1  0  0  0
  5  8  1  0  0  0
  2  6  2  0  0  0
  3  6  1  0  0  0
  6  7  1  0  0  0
  3  4  2  0  0  0
  1  9  1  0  0  0
  2 10  1  0  0  0
  3 11  1  0  0  0
  4 12  1  0  0  0
M  END
