http://cactus.nci.nih.gov/chemical/structure/PARACETAMOL/file?format=sdf&get3d=True
__Jmol-12_05291314093D 1   1.00000     0.00000     0
Jmol version 12.3.28  2012-05-30 15:29 EXTRACT: ({4:10 15:19 22:24 27 29 31:33})
 20 20  0  0  0  0              1 V2000
  -0.00728   0.49955   0.23064 C   0  0  0  0  0  0
   0.28651  -0.85596   0.29553 C   0  0  0  0  0  0
  -0.73345  -1.78595   0.25532 C   0  0  0  0  0  0
  -2.05145  -1.36618   0.14946 C   0  0  0  0  0  0
  -3.05523  -2.28242   0.10985 O   0  0  0  0  0  0
  -2.34568  -0.01209   0.08455 C   0  0  0  0  0  0
  -1.32704   0.91914   0.13047 C   0  0  0  0  0  0
   1.31265  -1.18281   0.37726 H   0  0  0  0  0  0
  -0.50507  -2.84028   0.30584 H   0  0  0  0  0  0
  -3.40703  -2.51825   0.97921 H   0  0  0  0  0  0
  -3.37194   0.31401   0.00178 H   0  0  0  0  0  0
  -1.55627   1.97332   0.07996 H   0  0  0  0  0  0
   1.10056   1.51012   0.26874 N   0  0  0  0  0  0
   2.52621   1.05642   0.37696 C   0  0  0  0  0  0
   0.88870   2.48631   0.22198 H   0  0  0  0  0  0
   3.43152   2.25228   0.39560 O   0  0  0  0  0  0
   2.97684  -0.37219   0.45454 C   0  0  0  0  0  0
   2.65195  -0.90879  -0.44908 H   0  0  0  0  0  0
   2.53520  -0.84833   1.34238 H   0  0  0  0  0  0
   4.07388  -0.40725   0.52722 H   0  0  0  0  0  0
  1  2  2  0  0  0
  2  3  1  0  0  0
  3  4  2  0  0  0
  4  5  1  0  0  0
  4  6  1  0  0  0
  6  7  2  0  0  0
  1  7  1  0  0  0
  2  8  1  0  0  0
  3  9  1  0  0  0
  5 10  1  0  0  0
  6 11  1  0  0  0
  7 12  1  0  0  0
 13  1  1  0  0  0
 14 13  1  0  0  0
 15 13  1  0  0  0
 16 14  2  0  0  0
 17 14  1  0  0  0
 18 17  1  0  0  0
 19 17  1  0  0  0
 20 17  1  0  0  0
M  END
