http://cactus.nci.nih.gov/chemical/structure/PENTACHLOROETHANE/file?format=sdf&get3d=True
__Jmol-12_10201115553D 1   1.00000     0.00000     0
Jmol version 12.1.38_dev  2011-02-16 08:29 EXTRACT: ({0:7})
  8  7  0  0  0  0              1 V2000
  -1.68140   1.47210  -0.20610 Cl  0  0  0  0  0  0
  -0.76700  -0.00000  -0.70350 C   0  0  0  0  0  0
   0.60590   0.00000  -0.02830 C   0  0  0  0  0  0
   0.39500   0.00000   1.76230 Cl  0  0  0  0  0  0
   1.52030  -1.47210  -0.52570 Cl  0  0  0  0  0  0
   1.52030   1.47210  -0.52570 Cl  0  0  0  0  0  0
  -1.68140  -1.47210  -0.20610 Cl  0  0  0  0  0  0
  -0.63950   0.00000  -1.78600 H   0  0  0  0  0  0
  1  2  1  0  0  0
  2  3  1  0  0  0
  3  4  1  0  0  0
  3  5  1  0  0  0
  3  6  1  0  0  0
  2  7  1  0  0  0
  2  8  1  0  0  0
M  END
