
 OpenBabel11141310073D

 30 30  0  0  0  0  0  0  0  0999 V2000
    2.3776    1.7682   -1.5317 C   0  0  0  0  0  0  0  0  0  0  0  0
    3.2902    0.9046   -2.4006 C   0  0  0  0  0  0  0  0  0  0  0  0
    1.6361    0.7629   -0.6582 C   0  0  0  0  0  0  0  0  0  0  0  0
    3.7749   -0.1492   -1.4068 C   0  0  0  0  0  0  0  0  0  0  0  0
    2.5463   -0.4610   -0.5576 C   0  0  0  0  0  0  0  0  0  0  0  0
    2.9663    2.4442   -0.8990 H   0  0  0  0  0  0  0  0  0  0  0  0
    1.6909    2.3782   -2.1265 H   0  0  0  0  0  0  0  0  0  0  0  0
    2.6858    0.4172   -3.1781 H   0  0  0  0  0  0  0  0  0  0  0  0
    4.4086    1.7143   -3.0592 C   0  0  0  0  0  0  0  0  0  0  0  0
    1.4050    1.1821    0.3261 H   0  0  0  0  0  0  0  0  0  0  0  0
    0.6859    0.4803   -1.1261 H   0  0  0  0  0  0  0  0  0  0  0  0
    4.1614   -1.0462   -1.9000 H   0  0  0  0  0  0  0  0  0  0  0  0
    4.5718    0.2545   -0.7698 H   0  0  0  0  0  0  0  0  0  0  0  0
    2.8254   -0.6764    0.4787 H   0  0  0  0  0  0  0  0  0  0  0  0
    2.0259   -1.3437   -0.9471 H   0  0  0  0  0  0  0  0  0  0  0  0
    5.0184    2.2058   -2.2903 H   0  0  0  0  0  0  0  0  0  0  0  0
    3.9597    2.5132   -3.6627 H   0  0  0  0  0  0  0  0  0  0  0  0
    5.3102    0.8561   -3.9501 C   0  0  0  0  0  0  0  0  0  0  0  0
    4.7016    0.3503   -4.7096 H   0  0  0  0  0  0  0  0  0  0  0  0
    5.7956    0.0770   -3.3512 H   0  0  0  0  0  0  0  0  0  0  0  0
    6.3827    1.7054   -4.6354 C   0  0  0  0  0  0  0  0  0  0  0  0
    6.9885    2.2144   -3.8756 H   0  0  0  0  0  0  0  0  0  0  0  0
    5.9040    2.4840   -5.2417 H   0  0  0  0  0  0  0  0  0  0  0  0
    7.2870    0.8497   -5.5221 C   0  0  0  0  0  0  0  0  0  0  0  0
    6.6875    0.3471   -6.2901 H   0  0  0  0  0  0  0  0  0  0  0  0
    7.7664    0.0681   -4.9215 H   0  0  0  0  0  0  0  0  0  0  0  0
    8.3606    1.6885   -6.1968 C   0  0  0  0  0  0  0  0  0  0  0  0
    8.9991    2.1788   -5.4549 H   0  0  0  0  0  0  0  0  0  0  0  0
    7.9144    2.4612   -6.8308 H   0  0  0  0  0  0  0  0  0  0  0  0
    8.9952    1.0569   -6.8264 H   0  0  0  0  0  0  0  0  0  0  0  0
  1  2  1  0  0  0  0
  1  6  1  0  0  0  0
  1  7  1  0  0  0  0
  2  4  1  0  0  0  0
  2  8  1  0  0  0  0
  2  9  1  0  0  0  0
  3  1  1  0  0  0  0
  3 10  1  0  0  0  0
  3 11  1  0  0  0  0
  4  5  1  0  0  0  0
  4 12  1  0  0  0  0
  4 13  1  0  0  0  0
  5  3  1  0  0  0  0
  5 14  1  0  0  0  0
  5 15  1  0  0  0  0
 16  9  1  0  0  0  0
 17  9  1  0  0  0  0
 18  9  1  0  0  0  0
 19 18  1  0  0  0  0
 20 18  1  0  0  0  0
 21 18  1  0  0  0  0
 22 21  1  0  0  0  0
 23 21  1  0  0  0  0
 24 21  1  0  0  0  0
 25 24  1  0  0  0  0
 26 24  1  0  0  0  0
 27 24  1  0  0  0  0
 28 27  1  0  0  0  0
 29 27  1  0  0  0  0
 30 27  1  0  0  0  0
M  END
