9639 perfluorohexane (http://www.chemspider.com/)
  Marvin  12300703363D          

 20 19  0  0  0  0            999 V2000
    1.2676    0.6375    1.0925 F   0  0  0  0  0  0  0  0  0  0  0  0
    1.2676    0.6375   -1.0925 F   0  0  0  0  0  0  0  0  0  0  0  0
   -1.2676   -0.6375   -1.0925 F   0  0  0  0  0  0  0  0  0  0  0  0
   -1.2676   -0.6375    1.0925 F   0  0  0  0  0  0  0  0  0  0  0  0
    0.9851   -2.1999   -1.0927 F   0  0  0  0  0  0  0  0  0  0  0  0
    0.9851   -2.1999    1.0927 F   0  0  0  0  0  0  0  0  0  0  0  0
   -0.9851    2.1999    1.0927 F   0  0  0  0  0  0  0  0  0  0  0  0
   -0.9851    2.1999   -1.0927 F   0  0  0  0  0  0  0  0  0  0  0  0
    3.4409   -2.8514   -0.0000 F   0  0  0  0  0  0  0  0  0  0  0  0
    3.5423   -0.9606    1.1060 F   0  0  0  0  0  0  0  0  0  0  0  0
    3.5423   -0.9606   -1.1060 F   0  0  0  0  0  0  0  0  0  0  0  0
   -3.4409    2.8514    0.0000 F   0  0  0  0  0  0  0  0  0  0  0  0
   -3.5423    0.9606   -1.1060 F   0  0  0  0  0  0  0  0  0  0  0  0
   -3.5423    0.9606    1.1060 F   0  0  0  0  0  0  0  0  0  0  0  0
    0.7843   -0.0488    0.0000 C   0  0  2  0  0  0  0  0  0  0  0  0
   -0.7843    0.0488   -0.0000 C   0  0  1  0  0  0  0  0  0  0  0  0
    1.4245   -1.4833   -0.0000 C   0  0  2  0  0  0  0  0  0  0  0  0
   -1.4245    1.4833    0.0000 C   0  0  1  0  0  0  0  0  0  0  0  0
    2.9828   -1.5545    0.0000 C   0  0  1  0  0  0  0  0  0  0  0  0
   -2.9828    1.5545   -0.0000 C   0  0  2  0  0  0  0  0  0  0  0  0
  1 15  1  0  0  0  0
  2 15  1  0  0  0  0
  3 16  1  0  0  0  0
  4 16  1  0  0  0  0
  5 17  1  0  0  0  0
  6 17  1  0  0  0  0
  7 18  1  0  0  0  0
  8 18  1  0  0  0  0
  9 19  1  0  0  0  0
 10 19  1  0  0  0  0
 11 19  1  0  0  0  0
 12 20  1  0  0  0  0
 13 20  1  0  0  0  0
 14 20  1  0  0  0  0
 15 16  1  0  0  0  0
 15 17  1  0  0  0  0
 16 18  1  0  0  0  0
 17 19  1  0  0  0  0
 18 20  1  0  0  0  0
M  END
$$$$
