http://cactus.nci.nih.gov/chemical/structure/propionic%20acid/file?format=sdf&get3d=True
__Jmol-12_07041213563D 1   1.00000     0.00000     0
Jmol version 12.3.28  2012-05-30 15:29 EXTRACT: ({0:10})
 11 10  0  0  0  0              1 V2000
   0.48240   0.02640  -0.00190 C   0  0  0  0  0  0
  -0.75730  -0.83050  -0.00130 C   0  0  0  0  0  0
  -1.99710   0.06600   0.00140 C   0  0  0  0  0  0
   0.38430   1.23070  -0.00030 O   0  0  0  0  0  0
   1.69540  -0.54810   0.00140 O   0  0  0  0  0  0
  -0.76510  -1.45870  -0.89210 H   0  0  0  0  0  0
  -0.76280  -1.46090   0.88790 H   0  0  0  0  0  0
  -1.98920   0.69420   0.89210 H   0  0  0  0  0  0
  -1.99150   0.69640  -0.88780 H   0  0  0  0  0  0
  -2.89370  -0.55380   0.00180 H   0  0  0  0  0  0
   2.46100   0.04260   0.00090 H   0  0  0  0  0  0
  1  2  1  0  0  0
  2  3  1  0  0  0
  1  4  2  0  0  0
  1  5  1  0  0  0
  2  6  1  0  0  0
  2  7  1  0  0  0
  3  8  1  0  0  0
  3  9  1  0  0  0
  3 10  1  0  0  0
  5 11  1  0  0  0
M  END
