http://cactus.nci.nih.gov/chemical/structure/Propyl%20phenyl%20ketone/file?format=sdf&get3d=True
__Jmol-12_06131110393D 1   1.00000     0.00000     0
Jmol version 12.1.38_dev  2011-02-16 08:29 EXTRACT: ({0:22})
 23 23  0  0  0  0              1 V2000
   0.69770  -0.17360   0.00360 C   0  0  0  0  0  0
   1.69550  -1.15360   0.00260 C   0  0  0  0  0  0
   3.02290  -0.78060  -0.00050 C   0  0  0  0  0  0
   3.36900   0.55950  -0.00270 C   0  0  0  0  0  0
   2.38730   1.53520  -0.00130 C   0  0  0  0  0  0
   1.05550   1.17840   0.00140 C   0  0  0  0  0  0
  -0.72150  -0.56310   0.00070 C   0  0  0  0  0  0
  -1.02830  -1.73620  -0.00240 O   0  0  0  0  0  0
  -1.79360   0.49600   0.00180 C   0  0  0  0  0  0
  -3.17020  -0.17170  -0.00160 C   0  0  0  0  0  0
  -4.25860   0.90360  -0.00050 C   0  0  0  0  0  0
   1.42700  -2.19970   0.00460 H   0  0  0  0  0  0
   3.79470  -1.53610  -0.00090 H   0  0  0  0  0  0
   4.41040   0.84530  -0.00510 H   0  0  0  0  0  0
   2.66530   2.57880  -0.00230 H   0  0  0  0  0  0
   0.29060   1.94090   0.00210 H   0  0  0  0  0  0
  -1.69210   1.11480   0.89340 H   0  0  0  0  0  0
  -1.68970   1.11900  -0.88660 H   0  0  0  0  0  0
  -3.27170  -0.79050  -0.89320 H   0  0  0  0  0  0
  -3.27400  -0.79470   0.88680 H   0  0  0  0  0  0
  -4.15710   1.52240   0.89110 H   0  0  0  0  0  0
  -4.15470   1.52660  -0.88890 H   0  0  0  0  0  0
  -5.23930   0.42790  -0.00290 H   0  0  0  0  0  0
  1  2  2  0  0  0
  2  3  1  0  0  0
  3  4  2  0  0  0
  4  5  1  0  0  0
  5  6  2  0  0  0
  1  6  1  0  0  0
  1  7  1  0  0  0
  7  8  2  0  0  0
  7  9  1  0  0  0
  9 10  1  0  0  0
 10 11  1  0  0  0
  2 12  1  0  0  0
  3 13  1  0  0  0
  4 14  1  0  0  0
  5 15  1  0  0  0
  6 16  1  0  0  0
  9 17  1  0  0  0
  9 18  1  0  0  0
 10 19  1  0  0  0
 10 20  1  0  0  0
 11 21  1  0  0  0
 11 22  1  0  0  0
 11 23  1  0  0  0
M  END
