Pyridine, ID: C110861
  NIST    04042217083D 1   1.00000     0.00000      
NIST Chemistry WebBook
 11 11  0     0  0              1 V2000
    3.1153    3.3709    0.1879 C   0  0  0  0  0  0           0  0  0
    3.8359    2.1807    0.1618 C   0  0  0  0  0  0           0  0  0
    1.7256    3.3269    0.1305 C   0  0  0  0  0  0           0  0  0
    3.1443    0.9716    0.0792 C   0  0  0  0  0  0           0  0  0
    1.0897    2.0875    0.0481 C   0  0  0  0  0  0           0  0  0
    1.7932    0.9321    0.0237 N   0  0  0  0  0  0           0  0  0
    3.6362    4.3315    0.2527 H   0  0  0  0  0  0           0  0  0
    4.9292    2.1889    0.2054 H   0  0  0  0  0  0           0  0  0
    1.1363    4.2489    0.1493 H   0  0  0  0  0  0           0  0  0
    3.6509    0.0000    0.0549 H   0  0  0  0  0  0           0  0  0
    0.0000    1.9834    0.0000 H   0  0  0  0  0  0           0  0  0
  1  2  2  0     0  0
  3  1  1  0     0  0
  1  7  1  0     0  0
  2  4  1  0     0  0
  2  8  1  0     0  0
  5  3  2  0     0  0
  3  9  1  0     0  0
  4  6  2  0     0  0
  4 10  1  0     0  0
  6  5  1  0     0  0
  5 11  1  0     0  0
M  END
