http://cactus.nci.nih.gov/chemical/structure/quinoline%20%20/file?format=sdf&get3d=True
__Jmol-12_05171114433D 1   1.00000     0.00000     0
Jmol version 12.1.38_dev  2011-02-16 08:29 EXTRACT: ({0:16})
 17 18  0  0  0  0              1 V2000
  -1.17540  -1.35860  -0.00010 N   0  0  0  0  0  0
  -2.31940  -0.71870   0.00040 C   0  0  0  0  0  0
  -2.38090   0.67330   0.00020 C   0  0  0  0  0  0
  -1.22860   1.40650  -0.00010 C   0  0  0  0  0  0
  -0.00190   0.71590  -0.00020 C   0  0  0  0  0  0
   1.22320   1.40150  -0.00010 C   0  0  0  0  0  0
   2.38850   0.69700   0.00030 C   0  0  0  0  0  0
   2.38170  -0.69610   0.00020 C   0  0  0  0  0  0
   1.21240  -1.39270   0.00000 C   0  0  0  0  0  0
  -0.01140  -0.70120  -0.00040 C   0  0  0  0  0  0
  -3.23870  -1.28540   0.00060 H   0  0  0  0  0  0
  -3.33880   1.17200  -0.00010 H   0  0  0  0  0  0
  -1.25770   2.48610  -0.00060 H   0  0  0  0  0  0
   1.24130   2.48130  -0.00060 H   0  0  0  0  0  0
   3.33050   1.22530   0.00050 H   0  0  0  0  0  0
   3.31930  -1.23200  -0.00020 H   0  0  0  0  0  0
   1.22480  -2.47260  -0.00050 H   0  0  0  0  0  0
  1  2  2  0  0  0
  2  3  1  0  0  0
  3  4  2  0  0  0
  4  5  1  0  0  0
  5  6  2  0  0  0
  6  7  1  0  0  0
  7  8  2  0  0  0
  8  9  1  0  0  0
  9 10  2  0  0  0
  1 10  1  0  0  0
  5 10  1  0  0  0
  2 11  1  0  0  0
  3 12  1  0  0  0
  4 13  1  0  0  0
  6 14  1  0  0  0
  7 15  1  0  0  0
  8 16  1  0  0  0
  9 17  1  0  0  0
M  END
