file:/home/renata/GUILHERME/SALICYLIC_ACID1.mol
__Jmol-12_06111315193D 1   1.00000     0.00000     0
Jmol version 12.3.28  2012-05-30 15:29 EXTRACT: ({0:15})
 16 16  0  0  0  0              1 V2000
  -1.36900  -0.06930   0.01230 C   0  0  0  0  0  0
  -0.73090   1.17340  -0.03140 C   0  0  0  0  0  0
  -0.61300  -1.23790   0.02060 C   0  0  0  0  0  0
   0.77910  -1.16940  -0.00700 C   0  0  0  0  0  0
   1.41890   0.07510  -0.05540 C   0  0  0  0  0  0
   2.78450   0.10670  -0.08370 O   0  0  0  0  0  0
   0.67150   1.26120  -0.07340 C   0  0  0  0  0  0
   1.33940   2.59240  -0.16000 C   0  0  0  0  0  0
   2.52440   2.84730  -0.25740 O   0  0  0  0  0  0
   0.44910   3.60780  -0.14010 O   0  0  0  0  0  0
  -2.45460  -0.12070   0.03510 H   0  0  0  0  0  0
  -1.34290   2.07230  -0.03870 H   0  0  0  0  0  0
  -1.10970  -2.20540   0.04950 H   0  0  0  0  0  0
   1.35110  -2.09220   0.00960 H   0  0  0  0  0  0
   3.13810  -0.79480  -0.15070 H   0  0  0  0  0  0
   1.02320   4.39830  -0.22490 H   0  0  0  0  0  0
  1  2  2  0  0  0
  1 11  1  0  0  0
  2  7  1  0  0  0
  2 12  1  0  0  0
  3  1  1  0  0  0
  3 13  1  0  0  0
  4  3  2  0  0  0
  4 14  1  0  0  0
  5  4  1  0  0  0
  5  6  1  0  0  0
  6 15  1  0  0  0
  7  5  2  0  0  0
  7  8  1  0  0  0
  8 10  1  0  0  0
  8  9  2  0  0  0
 10 16  1  0  0  0
M  END
