http://cactus.nci.nih.gov/chemical/structure/SEC-BUTANOL/file?format=sdf&get3d=True
__Jmol-12_10201115553D 1   1.00000     0.00000     0
Jmol version 12.1.38_dev  2011-02-16 08:29 EXTRACT: ({0:14})
 15 14  0  0  0  0              1 V2000
  -0.44070   0.01130  -0.33670 C   0  0  0  0  0  0
  -1.71370   0.79240  -0.00480 C   0  0  0  0  0  0
   0.76440   0.70520   0.30140 C   0  0  0  0  0  0
   2.04940  -0.00310  -0.13240 C   0  0  0  0  0  0
  -0.55070  -1.31840   0.17500 O   0  0  0  0  0  0
  -0.30840  -0.02520  -1.41800 H   0  0  0  0  0  0
  -1.84600   0.82900   1.07660 H   0  0  0  0  0  0
  -1.62970   1.80670  -0.39500 H   0  0  0  0  0  0
  -2.57220   0.29810  -0.45940 H   0  0  0  0  0  0
   0.79680   1.74610  -0.02050 H   0  0  0  0  0  0
   0.67510   0.66320   1.38690 H   0  0  0  0  0  0
   2.01700  -1.04390   0.18950 H   0  0  0  0  0  0
   2.13870   0.03890  -1.21790 H   0  0  0  0  0  0
   2.90790   0.49130   0.32220 H   0  0  0  0  0  0
  -1.29500  -1.81870  -0.18680 H   0  0  0  0  0  0
  1  2  1  0  0  0
  1  3  1  0  0  0
  3  4  1  0  0  0
  1  5  1  0  0  0
  1  6  1  0  0  0
  2  7  1  0  0  0
  2  8  1  0  0  0
  2  9  1  0  0  0
  3 10  1  0  0  0
  3 11  1  0  0  0
  4 12  1  0  0  0
  4 13  1  0  0  0
  4 14  1  0  0  0
  5 15  1  0  0  0
M  END
