8471 triethylamine (http://www.chemspider.com/)
  Marvin  12300703363D          

 22 21  0  0  0  0            999 V2000
   -0.0409   -0.0579   -0.1003 N   0  0  0  0  0  0  0  0  0  0  0  0
    1.4534   -0.2170   -0.1409 C   0  0  0  0  0  0  0  0  0  0  0  0
   -0.4972    1.3657   -0.2584 C   0  0  0  0  0  0  0  0  0  0  0  0
   -0.6891   -0.7710    1.0535 C   0  0  0  0  0  0  0  0  0  0  0  0
    2.0371   -1.6471   -0.2090 C   0  0  0  0  0  0  0  0  0  0  0  0
   -0.0733    2.1348   -1.5310 C   0  0  0  0  0  0  0  0  0  0  0  0
   -2.2319   -0.8668    1.0833 C   0  0  0  0  0  0  0  0  0  0  0  0
    1.9070    0.3032    0.7078 H   0  0  0  0  0  0  0  0  0  0  0  0
    1.8457    0.2494   -1.0461 H   0  0  0  0  0  0  0  0  0  0  0  0
   -0.2007    1.9517    0.6165 H   0  0  0  0  0  0  0  0  0  0  0  0
   -1.5869    1.3966   -0.3071 H   0  0  0  0  0  0  0  0  0  0  0  0
   -0.3498   -0.3365    1.9985 H   0  0  0  0  0  0  0  0  0  0  0  0
   -0.3801   -1.8175    1.0559 H   0  0  0  0  0  0  0  0  0  0  0  0
    3.1216   -1.6055   -0.3340 H   0  0  0  0  0  0  0  0  0  0  0  0
    1.6128   -2.1906   -1.0549 H   0  0  0  0  0  0  0  0  0  0  0  0
    1.8489   -2.2086    0.7066 H   0  0  0  0  0  0  0  0  0  0  0  0
   -0.5564    3.1142   -1.5574 H   0  0  0  0  0  0  0  0  0  0  0  0
   -0.3663    1.5812   -2.4245 H   0  0  0  0  0  0  0  0  0  0  0  0
    1.0018    2.3152   -1.5594 H   0  0  0  0  0  0  0  0  0  0  0  0
   -2.5542   -1.4932    1.9183 H   0  0  0  0  0  0  0  0  0  0  0  0
   -2.6029   -1.3087    0.1571 H   0  0  0  0  0  0  0  0  0  0  0  0
   -2.6986    0.1085    1.2253 H   0  0  0  0  0  0  0  0  0  0  0  0
  1  2  1  0  0  0  0
  1  3  1  0  0  0  0
  1  4  1  0  0  0  0
  2  5  1  0  0  0  0
  2  8  1  0  0  0  0
  2  9  1  0  0  0  0
  3  6  1  0  0  0  0
  3 10  1  0  0  0  0
  3 11  1  0  0  0  0
  4  7  1  0  0  0  0
  4 12  1  0  0  0  0
  4 13  1  0  0  0  0
  5 14  1  0  0  0  0
  5 15  1  0  0  0  0
  5 16  1  0  0  0  0
  6 17  1  0  0  0  0
  6 18  1  0  0  0  0
  6 19  1  0  0  0  0
  7 20  1  0  0  0  0
  7 21  1  0  0  0  0
  7 22  1  0  0  0  0
M  END
$$$$
