
 OpenBabel10311214373D

152151  0  0  0  0  0  0  0  0999 V2000
    0.4570   -0.4456   -0.5157 C   0  0  0  0  0  0  0  0  0  0  0  0
   -0.8063   -0.1631   -1.3524 C   0  0  0  0  0  0  0  0  0  0  0  0
    0.6637    0.5360    0.5075 O   0  0  0  0  0  0  0  0  0  0  0  0
    0.9188    1.8691    0.1009 C   0  0  0  0  0  0  0  0  0  0  0  0
    1.6886   -0.6293   -1.4235 C   0  0  0  0  0  0  0  0  0  0  0  0
    0.2974   -1.3898    0.0172 H   0  0  0  0  0  0  0  0  0  0  0  0
   -0.7141    0.8089   -1.8495 H   0  0  0  0  0  0  0  0  0  0  0  0
   -2.0908   -0.1757   -0.5011 C   0  0  0  0  0  0  0  0  0  0  0  0
   -0.8824   -0.9086   -2.1522 H   0  0  0  0  0  0  0  0  0  0  0  0
    0.0751    2.2873   -0.4529 H   0  0  0  0  0  0  0  0  0  0  0  0
    1.8359    1.9401   -0.4887 H   0  0  0  0  0  0  0  0  0  0  0  0
    1.0561    2.4735    1.0023 H   0  0  0  0  0  0  0  0  0  0  0  0
   -1.9462    0.5288    0.3263 H   0  0  0  0  0  0  0  0  0  0  0  0
   -2.3242   -1.4455    0.1198 O   0  0  0  0  0  0  0  0  0  0  0  0
   -3.3004    0.3171   -1.3196 C   0  0  0  0  0  0  0  0  0  0  0  0
   -3.4846   -0.3652   -2.1577 H   0  0  0  0  0  0  0  0  0  0  0  0
   -3.0579    1.2887   -1.7653 H   0  0  0  0  0  0  0  0  0  0  0  0
   -4.5848    0.4342   -0.4766 C   0  0  0  0  0  0  0  0  0  0  0  0
   -4.4323    1.3157    0.6424 O   0  0  0  0  0  0  0  0  0  0  0  0
   -4.7815   -0.5524   -0.0420 H   0  0  0  0  0  0  0  0  0  0  0  0
   -5.7951    0.8026   -1.3579 C   0  0  0  0  0  0  0  0  0  0  0  0
   -5.8259    0.1335   -2.2254 H   0  0  0  0  0  0  0  0  0  0  0  0
   -5.6718    1.8154   -1.7576 H   0  0  0  0  0  0  0  0  0  0  0  0
   -7.1264    0.7215   -0.5863 C   0  0  0  0  0  0  0  0  0  0  0  0
   -2.5402   -2.5626   -0.7247 C   0  0  0  0  0  0  0  0  0  0  0  0
   -1.6551   -2.7846   -1.3254 H   0  0  0  0  0  0  0  0  0  0  0  0
   -3.4122   -2.4196   -1.3669 H   0  0  0  0  0  0  0  0  0  0  0  0
   -2.7346   -3.4308   -0.0882 H   0  0  0  0  0  0  0  0  0  0  0  0
   -4.1685    2.6817    0.3750 C   0  0  0  0  0  0  0  0  0  0  0  0
   -4.9988    3.1515   -0.1574 H   0  0  0  0  0  0  0  0  0  0  0  0
   -3.2364    2.8102   -0.1801 H   0  0  0  0  0  0  0  0  0  0  0  0
   -4.0575    3.1952    1.3346 H   0  0  0  0  0  0  0  0  0  0  0  0
   -7.0308    1.3575    0.3015 H   0  0  0  0  0  0  0  0  0  0  0  0
   -7.3861   -0.5948   -0.0821 O   0  0  0  0  0  0  0  0  0  0  0  0
   -8.2950    1.2743   -1.4264 C   0  0  0  0  0  0  0  0  0  0  0  0
   -8.4504    0.6438   -2.3093 H   0  0  0  0  0  0  0  0  0  0  0  0
   -8.0280    2.2680   -1.8037 H   0  0  0  0  0  0  0  0  0  0  0  0
   -9.6081    1.3517   -0.6234 C   0  0  0  0  0  0  0  0  0  0  0  0
   -9.4976    2.1957    0.5297 O   0  0  0  0  0  0  0  0  0  0  0  0
   -9.8085    0.3494   -0.2281 H   0  0  0  0  0  0  0  0  0  0  0  0
  -10.7980    1.7376   -1.5247 C   0  0  0  0  0  0  0  0  0  0  0  0
  -10.8027    1.0934   -2.4112 H   0  0  0  0  0  0  0  0  0  0  0  0
  -10.6729    2.7625   -1.8917 H   0  0  0  0  0  0  0  0  0  0  0  0
  -12.1459    1.6245   -0.7855 C   0  0  0  0  0  0  0  0  0  0  0  0
   -7.5608   -1.6392   -1.0238 C   0  0  0  0  0  0  0  0  0  0  0  0
   -6.6592   -1.7950   -1.6206 H   0  0  0  0  0  0  0  0  0  0  0  0
   -8.4213   -1.4558   -1.6713 H   0  0  0  0  0  0  0  0  0  0  0  0
   -7.7541   -2.5616   -0.4685 H   0  0  0  0  0  0  0  0  0  0  0  0
   -9.2356    3.5718    0.3174 C   0  0  0  0  0  0  0  0  0  0  0  0
  -10.0430    4.0515   -0.2407 H   0  0  0  0  0  0  0  0  0  0  0  0
   -8.2785    3.7251   -0.1864 H   0  0  0  0  0  0  0  0  0  0  0  0
   -9.1763    4.0561    1.2965 H   0  0  0  0  0  0  0  0  0  0  0  0
  -12.0738    2.2366    0.1210 H   0  0  0  0  0  0  0  0  0  0  0  0
  -12.4059    0.2933   -0.3215 O   0  0  0  0  0  0  0  0  0  0  0  0
  -13.3041    2.1895   -1.6315 C   0  0  0  0  0  0  0  0  0  0  0  0
  -13.4498    1.5726   -2.5254 H   0  0  0  0  0  0  0  0  0  0  0  0
  -13.0342    3.1891   -1.9904 H   0  0  0  0  0  0  0  0  0  0  0  0
  -14.6251    2.2535   -0.8392 C   0  0  0  0  0  0  0  0  0  0  0  0
  -14.5309    3.0894    0.3216 O   0  0  0  0  0  0  0  0  0  0  0  0
  -14.8249    1.2470   -0.4539 H   0  0  0  0  0  0  0  0  0  0  0  0
  -15.8095    2.6418   -1.7460 C   0  0  0  0  0  0  0  0  0  0  0  0
  -15.8081    2.0010   -2.6350 H   0  0  0  0  0  0  0  0  0  0  0  0
  -15.6817    3.6679   -2.1085 H   0  0  0  0  0  0  0  0  0  0  0  0
  -17.1637    2.5270   -1.0171 C   0  0  0  0  0  0  0  0  0  0  0  0
  -12.5465   -0.7283   -1.2933 C   0  0  0  0  0  0  0  0  0  0  0  0
  -11.6303   -0.8578   -1.8740 H   0  0  0  0  0  0  0  0  0  0  0  0
  -13.3951   -0.5386   -1.9545 H   0  0  0  0  0  0  0  0  0  0  0  0
  -12.7401   -1.6671   -0.7662 H   0  0  0  0  0  0  0  0  0  0  0  0
  -14.2499    4.4640    0.1233 C   0  0  0  0  0  0  0  0  0  0  0  0
  -15.0261    4.9512   -0.4711 H   0  0  0  0  0  0  0  0  0  0  0  0
  -13.2690    4.6094   -0.3351 H   0  0  0  0  0  0  0  0  0  0  0  0
  -14.2314    4.9466    1.1048 H   0  0  0  0  0  0  0  0  0  0  0  0
  -17.0982    3.1338   -0.1066 H   0  0  0  0  0  0  0  0  0  0  0  0
  -17.4346    1.1948   -0.5635 O   0  0  0  0  0  0  0  0  0  0  0  0
  -18.3108    3.1015   -1.8710 C   0  0  0  0  0  0  0  0  0  0  0  0
  -18.4418    2.4968   -2.7756 H   0  0  0  0  0  0  0  0  0  0  0  0
  -18.0355    4.1060   -2.2126 H   0  0  0  0  0  0  0  0  0  0  0  0
  -19.6477    3.1574   -1.1041 C   0  0  0  0  0  0  0  0  0  0  0  0
  -19.5714    3.9584    0.0818 O   0  0  0  0  0  0  0  0  0  0  0  0
  -19.8692    2.1427   -0.7539 H   0  0  0  0  0  0  0  0  0  0  0  0
  -20.8015    3.5894   -2.0300 C   0  0  0  0  0  0  0  0  0  0  0  0
  -20.7897    2.9680   -2.9329 H   0  0  0  0  0  0  0  0  0  0  0  0
  -20.6399    4.6196   -2.3674 H   0  0  0  0  0  0  0  0  0  0  0  0
  -22.1801    3.4938   -1.3454 C   0  0  0  0  0  0  0  0  0  0  0  0
  -17.5485    0.1759   -1.5416 C   0  0  0  0  0  0  0  0  0  0  0  0
  -16.6099    0.0352   -2.0826 H   0  0  0  0  0  0  0  0  0  0  0  0
  -18.3655    0.3769   -2.2383 H   0  0  0  0  0  0  0  0  0  0  0  0
  -17.7757   -0.7607   -1.0241 H   0  0  0  0  0  0  0  0  0  0  0  0
  -19.2708    5.3348   -0.0715 C   0  0  0  0  0  0  0  0  0  0  0  0
  -20.0329    5.8485   -0.6619 H   0  0  0  0  0  0  0  0  0  0  0  0
  -18.2820    5.4819   -0.5121 H   0  0  0  0  0  0  0  0  0  0  0  0
  -19.2606    5.7880    0.9241 H   0  0  0  0  0  0  0  0  0  0  0  0
  -22.1318    4.0802   -0.4206 H   0  0  0  0  0  0  0  0  0  0  0  0
  -22.5064    2.1613   -0.9313 O   0  0  0  0  0  0  0  0  0  0  0  0
  -23.2780    4.1177   -2.2283 C   0  0  0  0  0  0  0  0  0  0  0  0
  -23.3803    3.5471   -3.1586 H   0  0  0  0  0  0  0  0  0  0  0  0
  -22.9662    5.1269   -2.5221 H   0  0  0  0  0  0  0  0  0  0  0  0
  -24.6468    4.1799   -1.5285 C   0  0  0  0  0  0  0  0  0  0  0  0
  -24.6325    4.9268   -0.3076 O   0  0  0  0  0  0  0  0  0  0  0  0
  -24.9300    3.1613   -1.2381 H   0  0  0  0  0  0  0  0  0  0  0  0
  -25.7344    4.6820   -2.4775 C   0  0  0  0  0  0  0  0  0  0  0  0
  -25.8767    3.9853   -3.3099 H   0  0  0  0  0  0  0  0  0  0  0  0
  -25.4815    5.6598   -2.9001 H   0  0  0  0  0  0  0  0  0  0  0  0
  -26.6863    4.7932   -1.9477 H   0  0  0  0  0  0  0  0  0  0  0  0
  -22.5789    1.1615   -1.9334 C   0  0  0  0  0  0  0  0  0  0  0  0
  -21.6031    0.9891   -2.3936 H   0  0  0  0  0  0  0  0  0  0  0  0
  -23.3229    1.4063   -2.6946 H   0  0  0  0  0  0  0  0  0  0  0  0
  -22.8873    0.2282   -1.4532 H   0  0  0  0  0  0  0  0  0  0  0  0
  -24.3139    6.3057   -0.3989 C   0  0  0  0  0  0  0  0  0  0  0  0
  -25.0357    6.8422   -1.0194 H   0  0  0  0  0  0  0  0  0  0  0  0
  -23.2993    6.4557   -0.7756 H   0  0  0  0  0  0  0  0  0  0  0  0
  -24.3602    6.7278    0.6092 H   0  0  0  0  0  0  0  0  0  0  0  0
    1.8861    0.2998   -1.9708 H   0  0  0  0  0  0  0  0  0  0  0  0
    1.4639   -1.3880   -2.1825 H   0  0  0  0  0  0  0  0  0  0  0  0
    2.9545   -1.0305   -0.6418 C   0  0  0  0  0  0  0  0  0  0  0  0
    2.7983   -2.2545    0.0856 O   0  0  0  0  0  0  0  0  0  0  0  0
    3.1261   -0.2619    0.1205 H   0  0  0  0  0  0  0  0  0  0  0  0
    4.1891   -1.0514   -1.5643 C   0  0  0  0  0  0  0  0  0  0  0  0
    2.5142   -3.4292   -0.6540 C   0  0  0  0  0  0  0  0  0  0  0  0
    3.3105   -3.6592   -1.3653 H   0  0  0  0  0  0  0  0  0  0  0  0
    1.5525   -3.3549   -1.1672 H   0  0  0  0  0  0  0  0  0  0  0  0
    2.4492   -4.2619    0.0526 H   0  0  0  0  0  0  0  0  0  0  0  0
    4.2209   -0.1206   -2.1417 H   0  0  0  0  0  0  0  0  0  0  0  0
    4.0965   -1.8613   -2.2967 H   0  0  0  0  0  0  0  0  0  0  0  0
    5.5066   -1.2252   -0.7832 C   0  0  0  0  0  0  0  0  0  0  0  0
    5.4211   -2.1408   -0.1866 H   0  0  0  0  0  0  0  0  0  0  0  0
    5.7176   -0.1710    0.1649 O   0  0  0  0  0  0  0  0  0  0  0  0
    6.6966   -1.4063   -1.7452 C   0  0  0  0  0  0  0  0  0  0  0  0
    5.9020    1.1410   -0.3391 C   0  0  0  0  0  0  0  0  0  0  0  0
    5.0299    1.4819   -0.9015 H   0  0  0  0  0  0  0  0  0  0  0  0
    6.8033    1.2104   -0.9529 H   0  0  0  0  0  0  0  0  0  0  0  0
    6.0302    1.8127    0.5147 H   0  0  0  0  0  0  0  0  0  0  0  0
    6.8151   -0.5028   -2.3548 H   0  0  0  0  0  0  0  0  0  0  0  0
    6.4722   -2.2182   -2.4465 H   0  0  0  0  0  0  0  0  0  0  0  0
    8.0203   -1.6941   -1.0100 C   0  0  0  0  0  0  0  0  0  0  0  0
    7.9881   -2.9025   -0.2411 O   0  0  0  0  0  0  0  0  0  0  0  0
    8.1709   -0.8923   -0.2780 H   0  0  0  0  0  0  0  0  0  0  0  0
    9.2114   -1.6528   -1.9842 C   0  0  0  0  0  0  0  0  0  0  0  0
    9.1462   -0.7431   -2.5913 H   0  0  0  0  0  0  0  0  0  0  0  0
    9.1696   -2.4960   -2.6816 H   0  0  0  0  0  0  0  0  0  0  0  0
   10.5606   -1.6850   -1.2634 C   0  0  0  0  0  0  0  0  0  0  0  0
   10.6392   -2.5977   -0.6632 H   0  0  0  0  0  0  0  0  0  0  0  0
   10.7522   -0.5826   -0.3772 O   0  0  0  0  0  0  0  0  0  0  0  0
   11.3802   -1.7133   -1.9910 H   0  0  0  0  0  0  0  0  0  0  0  0
    7.7326   -4.1141   -0.9307 C   0  0  0  0  0  0  0  0  0  0  0  0
   10.9560    0.6598   -1.0326 C   0  0  0  0  0  0  0  0  0  0  0  0
    8.4881   -4.3099   -1.6946 H   0  0  0  0  0  0  0  0  0  0  0  0
    6.7327   -4.1190   -1.3713 H   0  0  0  0  0  0  0  0  0  0  0  0
    7.7761   -4.9293   -0.2024 H   0  0  0  0  0  0  0  0  0  0  0  0
   10.0341    1.0021   -1.5105 H   0  0  0  0  0  0  0  0  0  0  0  0
   11.7618    0.5871   -1.7689 H   0  0  0  0  0  0  0  0  0  0  0  0
   11.2388    1.4002   -0.2792 H   0  0  0  0  0  0  0  0  0  0  0  0
  1  2  1  0  0  0  0
  1  3  1  0  0  0  0
  3  4  1  0  0  0  0
  5  1  1  0  0  0  0
  6  1  1  0  0  0  0
  7  2  1  0  0  0  0
  8  2  1  0  0  0  0
  9  2  1  0  0  0  0
 10  4  1  0  0  0  0
 11  4  1  0  0  0  0
 12  4  1  0  0  0  0
 13  8  1  0  0  0  0
 14  8  1  0  0  0  0
 15  8  1  0  0  0  0
 16 15  1  0  0  0  0
 17 15  1  0  0  0  0
 18 15  1  0  0  0  0
 19 18  1  0  0  0  0
 20 18  1  0  0  0  0
 21 18  1  0  0  0  0
 22 21  1  0  0  0  0
 23 21  1  0  0  0  0
 24 21  1  0  0  0  0
 25 14  1  0  0  0  0
 26 25  1  0  0  0  0
 27 25  1  0  0  0  0
 28 25  1  0  0  0  0
 29 19  1  0  0  0  0
 30 29  1  0  0  0  0
 31 29  1  0  0  0  0
 32 29  1  0  0  0  0
 33 24  1  0  0  0  0
 34 24  1  0  0  0  0
 35 24  1  0  0  0  0
 36 35  1  0  0  0  0
 37 35  1  0  0  0  0
 38 35  1  0  0  0  0
 39 38  1  0  0  0  0
 40 38  1  0  0  0  0
 41 38  1  0  0  0  0
 42 41  1  0  0  0  0
 43 41  1  0  0  0  0
 44 41  1  0  0  0  0
 45 34  1  0  0  0  0
 46 45  1  0  0  0  0
 47 45  1  0  0  0  0
 48 45  1  0  0  0  0
 49 39  1  0  0  0  0
 50 49  1  0  0  0  0
 51 49  1  0  0  0  0
 52 49  1  0  0  0  0
 53 44  1  0  0  0  0
 54 44  1  0  0  0  0
 55 44  1  0  0  0  0
 56 55  1  0  0  0  0
 57 55  1  0  0  0  0
 58 55  1  0  0  0  0
 59 58  1  0  0  0  0
 60 58  1  0  0  0  0
 61 58  1  0  0  0  0
 62 61  1  0  0  0  0
 63 61  1  0  0  0  0
 64 61  1  0  0  0  0
 65 54  1  0  0  0  0
 66 65  1  0  0  0  0
 67 65  1  0  0  0  0
 68 65  1  0  0  0  0
 69 59  1  0  0  0  0
 70 69  1  0  0  0  0
 71 69  1  0  0  0  0
 72 69  1  0  0  0  0
 73 64  1  0  0  0  0
 74 64  1  0  0  0  0
 75 64  1  0  0  0  0
 76 75  1  0  0  0  0
 77 75  1  0  0  0  0
 78 75  1  0  0  0  0
 79 78  1  0  0  0  0
 80 78  1  0  0  0  0
 81 78  1  0  0  0  0
 82 81  1  0  0  0  0
 83 81  1  0  0  0  0
 84 81  1  0  0  0  0
 85 74  1  0  0  0  0
 86 85  1  0  0  0  0
 87 85  1  0  0  0  0
 88 85  1  0  0  0  0
 89 79  1  0  0  0  0
 90 89  1  0  0  0  0
 91 89  1  0  0  0  0
 92 89  1  0  0  0  0
 93 84  1  0  0  0  0
 94 84  1  0  0  0  0
 95 84  1  0  0  0  0
 96 95  1  0  0  0  0
 97 95  1  0  0  0  0
 98 95  1  0  0  0  0
 99 98  1  0  0  0  0
100 98  1  0  0  0  0
101 98  1  0  0  0  0
102101  1  0  0  0  0
103101  1  0  0  0  0
104101  1  0  0  0  0
105 94  1  0  0  0  0
106105  1  0  0  0  0
107105  1  0  0  0  0
108105  1  0  0  0  0
109 99  1  0  0  0  0
110109  1  0  0  0  0
111109  1  0  0  0  0
112109  1  0  0  0  0
113  5  1  0  0  0  0
114  5  1  0  0  0  0
115  5  1  0  0  0  0
116115  1  0  0  0  0
117115  1  0  0  0  0
118115  1  0  0  0  0
119116  1  0  0  0  0
120119  1  0  0  0  0
121119  1  0  0  0  0
122119  1  0  0  0  0
123118  1  0  0  0  0
124118  1  0  0  0  0
125118  1  0  0  0  0
126125  1  0  0  0  0
127125  1  0  0  0  0
128125  1  0  0  0  0
129127  1  0  0  0  0
130129  1  0  0  0  0
131129  1  0  0  0  0
132129  1  0  0  0  0
133128  1  0  0  0  0
134128  1  0  0  0  0
135128  1  0  0  0  0
136135  1  0  0  0  0
137135  1  0  0  0  0
138135  1  0  0  0  0
139138  1  0  0  0  0
140138  1  0  0  0  0
141138  1  0  0  0  0
142141  1  0  0  0  0
143141  1  0  0  0  0
144141  1  0  0  0  0
145136  1  0  0  0  0
146143  1  0  0  0  0
147145  1  0  0  0  0
148145  1  0  0  0  0
149145  1  0  0  0  0
150146  1  0  0  0  0
151146  1  0  0  0  0
152146  1  0  0  0  0
M  END
