
 OpenBabel06221217343D

128127  0  0  0  0  0  0  0  0999 V2000
    5.4339    1.3458    5.7540 O   0  0  0  0  0  0  0  0  0  0  0  0
    4.4628    1.8505    4.9386 C   0  0  0  0  0  0  0  0  0  0  0  0
    3.9059    0.7462    4.0692 C   0  0  0  0  0  0  0  0  0  0  0  0
    2.8082    1.2546    3.1331 C   0  0  0  0  0  0  0  0  0  0  0  0
    2.2515    0.1297    2.2591 C   0  0  0  0  0  0  0  0  0  0  0  0
    1.1537    0.6344    1.3223 C   0  0  0  0  0  0  0  0  0  0  0  0
    0.6019   -0.4910    0.4523 C   0  0  0  0  0  0  0  0  0  0  0  0
   -0.4193    0.0464   -0.3995 O   0  0  0  0  0  0  0  0  0  0  0  0
   -0.9873   -0.8772   -1.2282 C   0  0  0  0  0  0  0  0  0  0  0  0
   -2.0458   -0.2154   -2.0806 C   0  0  0  0  0  0  0  0  0  0  0  0
   -2.7094   -1.2148   -3.0281 C   0  0  0  0  0  0  0  0  0  0  0  0
   -3.7817   -0.5518   -3.8935 C   0  0  0  0  0  0  0  0  0  0  0  0
   -4.4341   -1.5655   -4.8344 C   0  0  0  0  0  0  0  0  0  0  0  0
   -5.5031   -0.9201   -5.7013 C   0  0  0  0  0  0  0  0  0  0  0  0
    4.1019    3.0186    4.9182 O   0  0  0  0  0  0  0  0  0  0  0  0
    4.7291    0.3269    3.4802 H   0  0  0  0  0  0  0  0  0  0  0  0
    3.5012   -0.0333    4.7243 H   0  0  0  0  0  0  0  0  0  0  0  0
    1.9970    1.6989    3.7235 H   0  0  0  0  0  0  0  0  0  0  0  0
    3.2079    2.0534    2.4960 H   0  0  0  0  0  0  0  0  0  0  0  0
    3.0636   -0.3103    1.6675 H   0  0  0  0  0  0  0  0  0  0  0  0
    1.8499   -0.6661    2.8982 H   0  0  0  0  0  0  0  0  0  0  0  0
    0.3354    1.0813    1.9004 H   0  0  0  0  0  0  0  0  0  0  0  0
    1.5400    1.4348    0.6791 H   0  0  0  0  0  0  0  0  0  0  0  0
    1.4039   -0.9146   -0.1638 H   0  0  0  0  0  0  0  0  0  0  0  0
    0.1717   -1.2762    1.0852 H   0  0  0  0  0  0  0  0  0  0  0  0
   -0.6819   -2.0607   -1.2703 O   0  0  0  0  0  0  0  0  0  0  0  0
   -2.7989    0.2213   -1.4154 H   0  0  0  0  0  0  0  0  0  0  0  0
   -1.5705    0.5845   -2.6589 H   0  0  0  0  0  0  0  0  0  0  0  0
   -1.9476   -1.6715   -3.6725 H   0  0  0  0  0  0  0  0  0  0  0  0
   -3.1585   -2.0298   -2.4467 H   0  0  0  0  0  0  0  0  0  0  0  0
   -4.5472   -0.1008   -3.2505 H   0  0  0  0  0  0  0  0  0  0  0  0
   -3.3326    0.2588   -4.4801 H   0  0  0  0  0  0  0  0  0  0  0  0
   -3.6724   -2.0170   -5.4808 H   0  0  0  0  0  0  0  0  0  0  0  0
   -4.8863   -2.3766   -4.2517 H   0  0  0  0  0  0  0  0  0  0  0  0
   -5.9536   -1.6656   -6.3643 H   0  0  0  0  0  0  0  0  0  0  0  0
   -6.2989   -0.4877   -5.0865 H   0  0  0  0  0  0  0  0  0  0  0  0
   -5.0778   -0.1259   -6.3230 H   0  0  0  0  0  0  0  0  0  0  0  0
    6.0297    2.3185    6.6244 C   0  0  0  0  0  0  0  0  0  0  0  0
    5.2567    2.7490    7.2718 H   0  0  0  0  0  0  0  0  0  0  0  0
    6.4889    3.1120    6.0231 H   0  0  0  0  0  0  0  0  0  0  0  0
    7.0932    1.6253    7.4719 C   0  0  0  0  0  0  0  0  0  0  0  0
    7.8356    1.1589    6.8124 H   0  0  0  0  0  0  0  0  0  0  0  0
    6.6313    0.8035    8.0332 H   0  0  0  0  0  0  0  0  0  0  0  0
    7.7747    2.6037    8.4292 C   0  0  0  0  0  0  0  0  0  0  0  0
    7.0223    3.0564    9.0864 H   0  0  0  0  0  0  0  0  0  0  0  0
    8.2336    3.4177    7.8548 H   0  0  0  0  0  0  0  0  0  0  0  0
    8.8438    1.9120    9.2774 C   0  0  0  0  0  0  0  0  0  0  0  0
    9.5965    1.4559    8.6222 H   0  0  0  0  0  0  0  0  0  0  0  0
    8.3885    1.0946    9.8505 H   0  0  0  0  0  0  0  0  0  0  0  0
    9.5227    2.8939   10.2342 C   0  0  0  0  0  0  0  0  0  0  0  0
    8.7759    3.3288   10.9078 H   0  0  0  0  0  0  0  0  0  0  0  0
    9.9997    3.6974    9.6620 H   0  0  0  0  0  0  0  0  0  0  0  0
   10.5834    2.2225   11.0771 C   0  0  0  0  0  0  0  0  0  0  0  0
   10.8912    1.0405   11.0198 O   0  0  0  0  0  0  0  0  0  0  0  0
   11.1494    3.1388   11.9154 O   0  0  0  0  0  0  0  0  0  0  0  0
   12.1746    2.6023   12.7642 C   0  0  0  0  0  0  0  0  0  0  0  0
   12.9810    2.1915   12.1454 H   0  0  0  0  0  0  0  0  0  0  0  0
   11.7505    1.8081   13.3897 H   0  0  0  0  0  0  0  0  0  0  0  0
   12.7134    3.7275   13.6439 C   0  0  0  0  0  0  0  0  0  0  0  0
   11.8886    4.1623   14.2222 H   0  0  0  0  0  0  0  0  0  0  0  0
   13.0925    4.5362   13.0067 H   0  0  0  0  0  0  0  0  0  0  0  0
   13.8145    3.2320   14.5822 C   0  0  0  0  0  0  0  0  0  0  0  0
   14.6341    2.8053   13.9914 H   0  0  0  0  0  0  0  0  0  0  0  0
   13.4208    2.4284   15.2163 H   0  0  0  0  0  0  0  0  0  0  0  0
   14.3539    4.3603   15.4639 C   0  0  0  0  0  0  0  0  0  0  0  0
   13.5351    4.7914   16.0535 H   0  0  0  0  0  0  0  0  0  0  0  0
   14.7454    5.1673   14.8319 H   0  0  0  0  0  0  0  0  0  0  0  0
   15.4552    3.8628   16.4019 C   0  0  0  0  0  0  0  0  0  0  0  0
   16.2848    3.4551   15.8135 H   0  0  0  0  0  0  0  0  0  0  0  0
   15.0585    3.0765   17.0537 H   0  0  0  0  0  0  0  0  0  0  0  0
   15.9977    4.9706   17.2765 C   0  0  0  0  0  0  0  0  0  0  0  0
   15.6162    6.1322   17.2674 O   0  0  0  0  0  0  0  0  0  0  0  0
   16.9819    4.4766   18.0826 O   0  0  0  0  0  0  0  0  0  0  0  0
   17.5684    5.4515   18.9571 C   0  0  0  0  0  0  0  0  0  0  0  0
   16.7931    5.8667   19.6116 H   0  0  0  0  0  0  0  0  0  0  0  0
   18.0138    6.2554   18.3593 H   0  0  0  0  0  0  0  0  0  0  0  0
   18.6450    4.7655   19.7936 C   0  0  0  0  0  0  0  0  0  0  0  0
   19.3886    4.3118   19.1264 H   0  0  0  0  0  0  0  0  0  0  0  0
   18.1959    3.9346   20.3518 H   0  0  0  0  0  0  0  0  0  0  0  0
   19.3225    5.7435   20.7540 C   0  0  0  0  0  0  0  0  0  0  0  0
   18.5696    6.1865   21.4172 H   0  0  0  0  0  0  0  0  0  0  0  0
   19.7734    6.5644   20.1832 H   0  0  0  0  0  0  0  0  0  0  0  0
   20.3994    5.0527   21.5931 C   0  0  0  0  0  0  0  0  0  0  0  0
   21.1518    4.6051   20.9316 H   0  0  0  0  0  0  0  0  0  0  0  0
   19.9511    4.2290   22.1626 H   0  0  0  0  0  0  0  0  0  0  0  0
   21.0777    6.0310   22.5536 C   0  0  0  0  0  0  0  0  0  0  0  0
   20.3316    6.4609   23.2310 H   0  0  0  0  0  0  0  0  0  0  0  0
   21.5527    6.8383   21.9851 H   0  0  0  0  0  0  0  0  0  0  0  0
   22.1402    5.3552   23.3904 C   0  0  0  0  0  0  0  0  0  0  0  0
   22.4493    4.1740   23.3248 O   0  0  0  0  0  0  0  0  0  0  0  0
   22.7061    6.2662   24.2342 O   0  0  0  0  0  0  0  0  0  0  0  0
   23.7314    5.7234   25.0784 C   0  0  0  0  0  0  0  0  0  0  0  0
   24.5358    5.3130   24.4568 H   0  0  0  0  0  0  0  0  0  0  0  0
   23.3063    4.9279   25.7017 H   0  0  0  0  0  0  0  0  0  0  0  0
   24.2745    6.8434   25.9611 C   0  0  0  0  0  0  0  0  0  0  0  0
   23.4522    7.2788   26.5424 H   0  0  0  0  0  0  0  0  0  0  0  0
   24.6554    7.6533   25.3265 H   0  0  0  0  0  0  0  0  0  0  0  0
   25.3750    6.3401   26.8954 C   0  0  0  0  0  0  0  0  0  0  0  0
   26.1915    5.9108   26.3022 H   0  0  0  0  0  0  0  0  0  0  0  0
   24.9790    5.5374   27.5292 H   0  0  0  0  0  0  0  0  0  0  0  0
   25.9207    7.4648   27.7765 C   0  0  0  0  0  0  0  0  0  0  0  0
   25.1048    7.8992   28.3678 H   0  0  0  0  0  0  0  0  0  0  0  0
   26.3145    8.2706   27.1443 H   0  0  0  0  0  0  0  0  0  0  0  0
   27.0212    6.9625   28.7122 C   0  0  0  0  0  0  0  0  0  0  0  0
   27.8488    6.5515   28.1233 H   0  0  0  0  0  0  0  0  0  0  0  0
   26.6225    6.1787   29.3658 H   0  0  0  0  0  0  0  0  0  0  0  0
   27.5665    8.0709   29.5828 C   0  0  0  0  0  0  0  0  0  0  0  0
   27.1909    9.2345   29.5656 O   0  0  0  0  0  0  0  0  0  0  0  0
   28.5455    7.5769   30.3952 O   0  0  0  0  0  0  0  0  0  0  0  0
   29.1279    8.5588   31.2627 C   0  0  0  0  0  0  0  0  0  0  0  0
   28.3494    8.9803   31.9096 H   0  0  0  0  0  0  0  0  0  0  0  0
   29.5753    9.3576   30.6594 H   0  0  0  0  0  0  0  0  0  0  0  0
   30.2019    7.8863   32.1128 C   0  0  0  0  0  0  0  0  0  0  0  0
   30.9532    7.4294   31.4568 H   0  0  0  0  0  0  0  0  0  0  0  0
   29.7543    7.0607   32.6799 H   0  0  0  0  0  0  0  0  0  0  0  0
   30.8617    8.8864   33.0612 C   0  0  0  0  0  0  0  0  0  0  0  0
   30.0986    9.3307   33.7119 H   0  0  0  0  0  0  0  0  0  0  0  0
   31.3046    9.7040   32.4794 H   0  0  0  0  0  0  0  0  0  0  0  0
   31.9428    8.2293   33.9198 C   0  0  0  0  0  0  0  0  0  0  0  0
   32.7096    7.7835   33.2741 H   0  0  0  0  0  0  0  0  0  0  0  0
   31.5063    7.4093   34.5035 H   0  0  0  0  0  0  0  0  0  0  0  0
   32.5888    9.2451   34.8615 C   0  0  0  0  0  0  0  0  0  0  0  0
   31.8279    9.6712   35.5247 H   0  0  0  0  0  0  0  0  0  0  0  0
   33.0472   10.0521   34.2794 H   0  0  0  0  0  0  0  0  0  0  0  0
   33.6577    8.6191   35.7160 C   0  0  0  0  0  0  0  0  0  0  0  0
   34.0333    7.4601   35.7067 O   0  0  0  0  0  0  0  0  0  0  0  0
   34.2112    9.5143   36.5571 O   0  0  0  0  0  0  0  0  0  0  0  0
   34.8823    8.9949   37.0506 H   0  0  0  0  0  0  0  0  0  0  0  0
  1  2  1  0  0  0  0
  2  3  1  0  0  0  0
  2 15  2  0  0  0  0
  3  4  1  0  0  0  0
  3 16  1  0  0  0  0
  3 17  1  0  0  0  0
  4  5  1  0  0  0  0
  4 18  1  0  0  0  0
  4 19  1  0  0  0  0
  5  6  1  0  0  0  0
  5 20  1  0  0  0  0
  5 21  1  0  0  0  0
  6  7  1  0  0  0  0
  6 22  1  0  0  0  0
  6 23  1  0  0  0  0
  7  8  1  0  0  0  0
  7 24  1  0  0  0  0
  7 25  1  0  0  0  0
  8  9  1  0  0  0  0
  9 10  1  0  0  0  0
  9 26  2  0  0  0  0
 10 11  1  0  0  0  0
 10 27  1  0  0  0  0
 10 28  1  0  0  0  0
 11 12  1  0  0  0  0
 11 29  1  0  0  0  0
 11 30  1  0  0  0  0
 12 13  1  0  0  0  0
 12 31  1  0  0  0  0
 12 32  1  0  0  0  0
 13 14  1  0  0  0  0
 13 33  1  0  0  0  0
 13 34  1  0  0  0  0
 14 35  1  0  0  0  0
 14 36  1  0  0  0  0
 14 37  1  0  0  0  0
 38  1  1  0  0  0  0
 39 38  1  0  0  0  0
 40 38  1  0  0  0  0
 41 38  1  0  0  0  0
 42 41  1  0  0  0  0
 43 41  1  0  0  0  0
 44 41  1  0  0  0  0
 45 44  1  0  0  0  0
 46 44  1  0  0  0  0
 47 44  1  0  0  0  0
 48 47  1  0  0  0  0
 49 47  1  0  0  0  0
 50 47  1  0  0  0  0
 51 50  1  0  0  0  0
 52 50  1  0  0  0  0
 53 50  1  0  0  0  0
 54 53  2  0  0  0  0
 55 53  1  0  0  0  0
 56 55  1  0  0  0  0
 57 56  1  0  0  0  0
 58 56  1  0  0  0  0
 59 56  1  0  0  0  0
 60 59  1  0  0  0  0
 61 59  1  0  0  0  0
 62 59  1  0  0  0  0
 63 62  1  0  0  0  0
 64 62  1  0  0  0  0
 65 62  1  0  0  0  0
 66 65  1  0  0  0  0
 67 65  1  0  0  0  0
 68 65  1  0  0  0  0
 69 68  1  0  0  0  0
 70 68  1  0  0  0  0
 71 68  1  0  0  0  0
 72 71  2  0  0  0  0
 73 71  1  0  0  0  0
 74 73  1  0  0  0  0
 75 74  1  0  0  0  0
 76 74  1  0  0  0  0
 77 74  1  0  0  0  0
 78 77  1  0  0  0  0
 79 77  1  0  0  0  0
 80 77  1  0  0  0  0
 81 80  1  0  0  0  0
 82 80  1  0  0  0  0
 83 80  1  0  0  0  0
 84 83  1  0  0  0  0
 85 83  1  0  0  0  0
 86 83  1  0  0  0  0
 87 86  1  0  0  0  0
 88 86  1  0  0  0  0
 89 86  1  0  0  0  0
 90 89  2  0  0  0  0
 91 89  1  0  0  0  0
 92 91  1  0  0  0  0
 93 92  1  0  0  0  0
 94 92  1  0  0  0  0
 95 92  1  0  0  0  0
 96 95  1  0  0  0  0
 97 95  1  0  0  0  0
 98 95  1  0  0  0  0
 99 98  1  0  0  0  0
100 98  1  0  0  0  0
101 98  1  0  0  0  0
102101  1  0  0  0  0
103101  1  0  0  0  0
104101  1  0  0  0  0
105104  1  0  0  0  0
106104  1  0  0  0  0
107104  1  0  0  0  0
108107  2  0  0  0  0
109107  1  0  0  0  0
110109  1  0  0  0  0
111110  1  0  0  0  0
112110  1  0  0  0  0
113110  1  0  0  0  0
114113  1  0  0  0  0
115113  1  0  0  0  0
116113  1  0  0  0  0
117116  1  0  0  0  0
118116  1  0  0  0  0
119116  1  0  0  0  0
120119  1  0  0  0  0
121119  1  0  0  0  0
122119  1  0  0  0  0
123122  1  0  0  0  0
124122  1  0  0  0  0
125122  1  0  0  0  0
126125  2  0  0  0  0
127125  1  0  0  0  0
128127  1  0  0  0  0
M  END
