
 OpenBabel06251217153D

149148  0  0  0  0  0  0  0  0999 V2000
   -2.5563   -1.4193   -1.2184 C   0  0  0  0  0  0  0  0  0  0  0  0
   -3.5410   -2.2357   -2.0923 C   0  0  0  0  0  0  0  0  0  0  0  0
   -2.9558   -2.9349   -2.7055 H   0  0  0  0  0  0  0  0  0  0  0  0
   -4.0382   -1.5544   -2.7958 H   0  0  0  0  0  0  0  0  0  0  0  0
   -4.6185   -3.0385   -1.3299 C   0  0  0  0  0  0  0  0  0  0  0  0
   -3.9559   -4.0760   -0.4323 C   0  0  0  0  0  0  0  0  0  0  0  0
   -5.6278   -3.6406   -2.3426 C   0  0  0  0  0  0  0  0  0  0  0  0
   -6.8506   -4.3295   -1.6960 C   0  0  0  0  0  0  0  0  0  0  0  0
   -3.4491   -3.7956    0.6466 O   0  0  0  0  0  0  0  0  0  0  0  0
   -3.9344   -5.3129   -0.9946 O   0  0  0  0  0  0  0  0  0  0  0  0
   -3.3951   -6.3303   -0.1396 C   0  0  0  0  0  0  0  0  0  0  0  0
   -3.8863   -6.2933    0.8403 H   0  0  0  0  0  0  0  0  0  0  0  0
   -2.3192   -6.1630   -0.0170 H   0  0  0  0  0  0  0  0  0  0  0  0
   -3.6490   -7.6842   -0.7915 C   0  0  0  0  0  0  0  0  0  0  0  0
   -3.1763   -7.7075   -1.7813 H   0  0  0  0  0  0  0  0  0  0  0  0
   -4.7248   -7.8021   -0.9697 H   0  0  0  0  0  0  0  0  0  0  0  0
   -3.1260   -8.8268    0.0746 C   0  0  0  0  0  0  0  0  0  0  0  0
   -3.5967   -8.7899    1.0640 H   0  0  0  0  0  0  0  0  0  0  0  0
   -2.0463   -8.7142    0.2261 H   0  0  0  0  0  0  0  0  0  0  0  0
   -3.4025  -10.1814   -0.5562 C   0  0  0  0  0  0  0  0  0  0  0  0
   -2.9326  -10.2602   -1.5415 H   0  0  0  0  0  0  0  0  0  0  0  0
   -4.4776  -10.3465   -0.6732 H   0  0  0  0  0  0  0  0  0  0  0  0
   -3.0048  -10.9816    0.0759 H   0  0  0  0  0  0  0  0  0  0  0  0
   -7.7075   -3.2834   -0.9968 C   0  0  0  0  0  0  0  0  0  0  0  0
   -6.5056   -5.0237   -0.9251 H   0  0  0  0  0  0  0  0  0  0  0  0
   -7.6396   -5.1364   -2.7562 C   0  0  0  0  0  0  0  0  0  0  0  0
   -6.9481   -5.8244   -3.2614 H   0  0  0  0  0  0  0  0  0  0  0  0
   -8.0068   -4.4497   -3.5298 H   0  0  0  0  0  0  0  0  0  0  0  0
   -8.8251   -5.9532   -2.1884 C   0  0  0  0  0  0  0  0  0  0  0  0
   -7.6029   -3.0200    0.1932 O   0  0  0  0  0  0  0  0  0  0  0  0
   -8.5088   -2.6243   -1.8773 O   0  0  0  0  0  0  0  0  0  0  0  0
   -9.2742   -1.5355   -1.3391 C   0  0  0  0  0  0  0  0  0  0  0  0
   -9.1999   -0.7092   -2.0545 H   0  0  0  0  0  0  0  0  0  0  0  0
   -8.8668   -1.1736   -0.3901 H   0  0  0  0  0  0  0  0  0  0  0  0
  -10.7287   -1.9586   -1.1747 C   0  0  0  0  0  0  0  0  0  0  0  0
  -10.7853   -2.8482   -0.5355 H   0  0  0  0  0  0  0  0  0  0  0  0
  -11.1306   -2.2609   -2.1497 H   0  0  0  0  0  0  0  0  0  0  0  0
  -11.5615   -0.8246   -0.5801 C   0  0  0  0  0  0  0  0  0  0  0  0
  -11.4630    0.0751   -1.1988 H   0  0  0  0  0  0  0  0  0  0  0  0
  -11.1838   -0.5735    0.4179 H   0  0  0  0  0  0  0  0  0  0  0  0
  -13.0304   -1.1947   -0.4743 C   0  0  0  0  0  0  0  0  0  0  0  0
  -13.1695   -2.0702    0.1675 H   0  0  0  0  0  0  0  0  0  0  0  0
  -13.4491   -1.4171   -1.4609 H   0  0  0  0  0  0  0  0  0  0  0  0
  -13.6001   -0.3653   -0.0435 H   0  0  0  0  0  0  0  0  0  0  0  0
   -9.4015   -5.3227   -1.5032 H   0  0  0  0  0  0  0  0  0  0  0  0
   -8.2795   -7.1159   -1.3661 C   0  0  0  0  0  0  0  0  0  0  0  0
   -9.7698   -6.3735   -3.3425 C   0  0  0  0  0  0  0  0  0  0  0  0
   -9.1987   -6.9484   -4.0841 H   0  0  0  0  0  0  0  0  0  0  0  0
  -10.1043   -5.4609   -3.8553 H   0  0  0  0  0  0  0  0  0  0  0  0
  -11.0171   -7.1859   -2.9408 C   0  0  0  0  0  0  0  0  0  0  0  0
   -7.8249   -6.9803   -0.2369 O   0  0  0  0  0  0  0  0  0  0  0  0
   -8.2699   -8.2856   -2.0593 O   0  0  0  0  0  0  0  0  0  0  0  0
   -7.7680   -9.4007   -1.3096 C   0  0  0  0  0  0  0  0  0  0  0  0
   -8.2084   -9.4153   -0.3052 H   0  0  0  0  0  0  0  0  0  0  0  0
   -6.6801   -9.3078   -1.2302 H   0  0  0  0  0  0  0  0  0  0  0  0
   -8.1361  -10.6845   -2.0437 C   0  0  0  0  0  0  0  0  0  0  0  0
   -7.7312  -10.6545   -3.0628 H   0  0  0  0  0  0  0  0  0  0  0  0
   -9.2265  -10.7369   -2.1541 H   0  0  0  0  0  0  0  0  0  0  0  0
   -7.6177  -11.9135   -1.3011 C   0  0  0  0  0  0  0  0  0  0  0  0
   -7.9985  -11.9169   -0.2730 H   0  0  0  0  0  0  0  0  0  0  0  0
   -6.5239  -11.8758   -1.2404 H   0  0  0  0  0  0  0  0  0  0  0  0
   -8.0353  -13.2028   -1.9883 C   0  0  0  0  0  0  0  0  0  0  0  0
   -7.6512  -13.2449   -3.0123 H   0  0  0  0  0  0  0  0  0  0  0  0
   -9.1257  -13.2914   -2.0248 H   0  0  0  0  0  0  0  0  0  0  0  0
   -7.6433  -14.0664   -1.4418 H   0  0  0  0  0  0  0  0  0  0  0  0
  -11.8584   -6.4390   -1.9198 C   0  0  0  0  0  0  0  0  0  0  0  0
  -10.7248   -8.1249   -2.4571 H   0  0  0  0  0  0  0  0  0  0  0  0
  -11.8155   -7.5826   -4.1861 C   0  0  0  0  0  0  0  0  0  0  0  0
  -11.2198   -8.2327   -4.8359 H   0  0  0  0  0  0  0  0  0  0  0  0
  -12.1131   -6.7060   -4.7724 H   0  0  0  0  0  0  0  0  0  0  0  0
  -12.7264   -8.1253   -3.9109 H   0  0  0  0  0  0  0  0  0  0  0  0
  -11.5631   -6.3938   -0.7317 O   0  0  0  0  0  0  0  0  0  0  0  0
  -12.9123   -5.7913   -2.4790 O   0  0  0  0  0  0  0  0  0  0  0  0
  -13.7125   -5.0509   -1.5465 C   0  0  0  0  0  0  0  0  0  0  0  0
  -13.1857   -4.1235   -1.3009 H   0  0  0  0  0  0  0  0  0  0  0  0
  -13.8765   -5.6306   -0.6304 H   0  0  0  0  0  0  0  0  0  0  0  0
  -15.0548   -4.7434   -2.1996 C   0  0  0  0  0  0  0  0  0  0  0  0
  -15.5422   -5.6860   -2.4788 H   0  0  0  0  0  0  0  0  0  0  0  0
  -14.8920   -4.1992   -3.1381 H   0  0  0  0  0  0  0  0  0  0  0  0
  -15.9555   -3.9371   -1.2675 C   0  0  0  0  0  0  0  0  0  0  0  0
  -15.4916   -2.9688   -1.0498 H   0  0  0  0  0  0  0  0  0  0  0  0
  -16.0713   -4.4618   -0.3119 H   0  0  0  0  0  0  0  0  0  0  0  0
  -17.3287   -3.7058   -1.8757 C   0  0  0  0  0  0  0  0  0  0  0  0
  -17.8411   -4.6562   -2.0565 H   0  0  0  0  0  0  0  0  0  0  0  0
  -17.2530   -3.1684   -2.8260 H   0  0  0  0  0  0  0  0  0  0  0  0
  -17.9477   -3.1113   -1.1964 H   0  0  0  0  0  0  0  0  0  0  0  0
   -1.5619   -0.6627   -2.1316 C   0  0  0  0  0  0  0  0  0  0  0  0
   -2.0114   -2.1210   -0.5796 H   0  0  0  0  0  0  0  0  0  0  0  0
   -3.2316   -0.4138   -0.2938 C   0  0  0  0  0  0  0  0  0  0  0  0
   -5.1748   -2.3680   -0.6671 H   0  0  0  0  0  0  0  0  0  0  0  0
   -5.1063   -4.3574   -2.9904 H   0  0  0  0  0  0  0  0  0  0  0  0
   -5.9846   -2.8381   -3.0023 H   0  0  0  0  0  0  0  0  0  0  0  0
   -2.7183   -0.0151    0.7438 O   0  0  0  0  0  0  0  0  0  0  0  0
   -4.3901    0.0649   -0.8211 O   0  0  0  0  0  0  0  0  0  0  0  0
   -5.0364    1.0894   -0.0511 C   0  0  0  0  0  0  0  0  0  0  0  0
   -4.6865    2.0575   -0.4240 H   0  0  0  0  0  0  0  0  0  0  0  0
   -4.8025    1.0106    1.0166 H   0  0  0  0  0  0  0  0  0  0  0  0
   -6.5419    0.9636   -0.2470 C   0  0  0  0  0  0  0  0  0  0  0  0
   -6.8641   -0.0189    0.1171 H   0  0  0  0  0  0  0  0  0  0  0  0
   -6.7793    0.9838   -1.3177 H   0  0  0  0  0  0  0  0  0  0  0  0
   -7.2912    2.0733    0.4863 C   0  0  0  0  0  0  0  0  0  0  0  0
   -6.9863    3.0490    0.0906 H   0  0  0  0  0  0  0  0  0  0  0  0
   -7.0297    2.0603    1.5509 H   0  0  0  0  0  0  0  0  0  0  0  0
   -8.7968    1.9257    0.3446 C   0  0  0  0  0  0  0  0  0  0  0  0
   -9.1407    0.9918    0.7993 H   0  0  0  0  0  0  0  0  0  0  0  0
   -9.0969    1.9294   -0.7079 H   0  0  0  0  0  0  0  0  0  0  0  0
   -9.3077    2.7526    0.8478 H   0  0  0  0  0  0  0  0  0  0  0  0
   -2.0970    0.1733   -2.6028 H   0  0  0  0  0  0  0  0  0  0  0  0
   -1.2424   -1.3183   -2.9524 H   0  0  0  0  0  0  0  0  0  0  0  0
   -0.3074   -0.1065   -1.4086 C   0  0  0  0  0  0  0  0  0  0  0  0
    0.6254   -1.1861   -0.8705 C   0  0  0  0  0  0  0  0  0  0  0  0
   -0.6442    0.4613   -0.5376 H   0  0  0  0  0  0  0  0  0  0  0  0
    0.4583    0.8287   -2.3704 C   0  0  0  0  0  0  0  0  0  0  0  0
    1.5037   -0.9606   -0.0471 O   0  0  0  0  0  0  0  0  0  0  0  0
   -0.2524    1.5158   -2.8475 H   0  0  0  0  0  0  0  0  0  0  0  0
    0.8964    0.2283   -3.1786 H   0  0  0  0  0  0  0  0  0  0  0  0
    1.5814    1.6657   -1.7431 C   0  0  0  0  0  0  0  0  0  0  0  0
    2.3581    1.0090   -1.3398 H   0  0  0  0  0  0  0  0  0  0  0  0
    1.1841    2.6377   -0.6521 C   0  0  0  0  0  0  0  0  0  0  0  0
    2.0426    2.2651   -2.5374 H   0  0  0  0  0  0  0  0  0  0  0  0
    1.9985    3.1767    0.0879 O   0  0  0  0  0  0  0  0  0  0  0  0
    0.4013   -2.3999   -1.4392 O   0  0  0  0  0  0  0  0  0  0  0  0
   -0.1508    2.8925   -0.6456 O   0  0  0  0  0  0  0  0  0  0  0  0
   -0.5814    3.7547    0.4177 C   0  0  0  0  0  0  0  0  0  0  0  0
   -0.1965    4.7649    0.2382 H   0  0  0  0  0  0  0  0  0  0  0  0
   -0.2041    3.3816    1.3774 H   0  0  0  0  0  0  0  0  0  0  0  0
   -2.1058    3.7634    0.4308 C   0  0  0  0  0  0  0  0  0  0  0  0
   -2.4675    2.7376    0.5641 H   0  0  0  0  0  0  0  0  0  0  0  0
   -2.4781    4.0884   -0.5487 H   0  0  0  0  0  0  0  0  0  0  0  0
   -2.6585    4.6618    1.5336 C   0  0  0  0  0  0  0  0  0  0  0  0
   -2.3108    5.6905    1.3837 H   0  0  0  0  0  0  0  0  0  0  0  0
   -2.2819    4.3307    2.5084 H   0  0  0  0  0  0  0  0  0  0  0  0
   -4.1788    4.6470    1.5577 C   0  0  0  0  0  0  0  0  0  0  0  0
   -4.5573    3.6409    1.7634 H   0  0  0  0  0  0  0  0  0  0  0  0
   -4.5913    4.9811    0.6004 H   0  0  0  0  0  0  0  0  0  0  0  0
   -4.5522    5.3145    2.3406 H   0  0  0  0  0  0  0  0  0  0  0  0
    1.2047   -3.4599   -0.9021 C   0  0  0  0  0  0  0  0  0  0  0  0
    1.1655   -3.4444    0.1938 H   0  0  0  0  0  0  0  0  0  0  0  0
    2.2401   -3.3266   -1.2352 H   0  0  0  0  0  0  0  0  0  0  0  0
    0.6467   -4.7815   -1.4180 C   0  0  0  0  0  0  0  0  0  0  0  0
    0.6686   -4.7832   -2.5149 H   0  0  0  0  0  0  0  0  0  0  0  0
   -0.4115   -4.8600   -1.1395 H   0  0  0  0  0  0  0  0  0  0  0  0
    1.4285   -5.9716   -0.8692 C   0  0  0  0  0  0  0  0  0  0  0  0
    1.4039   -5.9599    0.2268 H   0  0  0  0  0  0  0  0  0  0  0  0
    2.4799   -5.8967   -1.1704 H   0  0  0  0  0  0  0  0  0  0  0  0
    0.8592   -7.2908   -1.3649 C   0  0  0  0  0  0  0  0  0  0  0  0
    0.8993   -7.3501   -2.4571 H   0  0  0  0  0  0  0  0  0  0  0  0
   -0.1825   -7.4101   -1.0522 H   0  0  0  0  0  0  0  0  0  0  0  0
    1.4340   -8.1283   -0.9572 H   0  0  0  0  0  0  0  0  0  0  0  0
  2  1  1  0  0  0  0
  3  2  1  0  0  0  0
  4  2  1  0  0  0  0
  5  2  1  0  0  0  0
  6  5  1  0  0  0  0
  7  5  1  0  0  0  0
  8  7  1  0  0  0  0
  9  6  2  0  0  0  0
 10  6  1  0  0  0  0
 11 10  1  0  0  0  0
 12 11  1  0  0  0  0
 13 11  1  0  0  0  0
 14 11  1  0  0  0  0
 15 14  1  0  0  0  0
 16 14  1  0  0  0  0
 17 14  1  0  0  0  0
 18 17  1  0  0  0  0
 19 17  1  0  0  0  0
 20 17  1  0  0  0  0
 21 20  1  0  0  0  0
 22 20  1  0  0  0  0
 23 20  1  0  0  0  0
 24  8  1  0  0  0  0
 25  8  1  0  0  0  0
 26  8  1  0  0  0  0
 27 26  1  0  0  0  0
 28 26  1  0  0  0  0
 29 26  1  0  0  0  0
 30 24  2  0  0  0  0
 31 24  1  0  0  0  0
 32 31  1  0  0  0  0
 33 32  1  0  0  0  0
 34 32  1  0  0  0  0
 35 32  1  0  0  0  0
 36 35  1  0  0  0  0
 37 35  1  0  0  0  0
 38 35  1  0  0  0  0
 39 38  1  0  0  0  0
 40 38  1  0  0  0  0
 41 38  1  0  0  0  0
 42 41  1  0  0  0  0
 43 41  1  0  0  0  0
 44 41  1  0  0  0  0
 45 29  1  0  0  0  0
 46 29  1  0  0  0  0
 47 29  1  0  0  0  0
 48 47  1  0  0  0  0
 49 47  1  0  0  0  0
 50 47  1  0  0  0  0
 51 46  2  0  0  0  0
 52 46  1  0  0  0  0
 53 52  1  0  0  0  0
 54 53  1  0  0  0  0
 55 53  1  0  0  0  0
 56 53  1  0  0  0  0
 57 56  1  0  0  0  0
 58 56  1  0  0  0  0
 59 56  1  0  0  0  0
 60 59  1  0  0  0  0
 61 59  1  0  0  0  0
 62 59  1  0  0  0  0
 63 62  1  0  0  0  0
 64 62  1  0  0  0  0
 65 62  1  0  0  0  0
 66 50  1  0  0  0  0
 67 50  1  0  0  0  0
 68 50  1  0  0  0  0
 69 68  1  0  0  0  0
 70 68  1  0  0  0  0
 71 68  1  0  0  0  0
 72 66  2  0  0  0  0
 73 66  1  0  0  0  0
 74 73  1  0  0  0  0
 75 74  1  0  0  0  0
 76 74  1  0  0  0  0
 77 74  1  0  0  0  0
 78 77  1  0  0  0  0
 79 77  1  0  0  0  0
 80 77  1  0  0  0  0
 81 80  1  0  0  0  0
 82 80  1  0  0  0  0
 83 80  1  0  0  0  0
 84 83  1  0  0  0  0
 85 83  1  0  0  0  0
 86 83  1  0  0  0  0
 87  1  1  0  0  0  0
 88  1  1  0  0  0  0
 89  1  1  0  0  0  0
 90  5  1  0  0  0  0
 91  7  1  0  0  0  0
 92  7  1  0  0  0  0
 93 89  2  0  0  0  0
 94 89  1  0  0  0  0
 95 94  1  0  0  0  0
 96 95  1  0  0  0  0
 97 95  1  0  0  0  0
 98 95  1  0  0  0  0
 99 98  1  0  0  0  0
100 98  1  0  0  0  0
101 98  1  0  0  0  0
102101  1  0  0  0  0
103101  1  0  0  0  0
104101  1  0  0  0  0
105104  1  0  0  0  0
106104  1  0  0  0  0
107104  1  0  0  0  0
108 87  1  0  0  0  0
109 87  1  0  0  0  0
110 87  1  0  0  0  0
111110  1  0  0  0  0
112110  1  0  0  0  0
113110  1  0  0  0  0
114111  2  0  0  0  0
115113  1  0  0  0  0
116113  1  0  0  0  0
117113  1  0  0  0  0
118117  1  0  0  0  0
119117  1  0  0  0  0
120117  1  0  0  0  0
121119  2  0  0  0  0
122111  1  0  0  0  0
123119  1  0  0  0  0
124123  1  0  0  0  0
125124  1  0  0  0  0
126124  1  0  0  0  0
127124  1  0  0  0  0
128127  1  0  0  0  0
129127  1  0  0  0  0
130127  1  0  0  0  0
131130  1  0  0  0  0
132130  1  0  0  0  0
133130  1  0  0  0  0
134133  1  0  0  0  0
135133  1  0  0  0  0
136133  1  0  0  0  0
137122  1  0  0  0  0
138137  1  0  0  0  0
139137  1  0  0  0  0
140137  1  0  0  0  0
141140  1  0  0  0  0
142140  1  0  0  0  0
143140  1  0  0  0  0
144143  1  0  0  0  0
145143  1  0  0  0  0
146143  1  0  0  0  0
147146  1  0  0  0  0
148146  1  0  0  0  0
149146  1  0  0  0  0
M  END
