
 OpenBabel10311216313D

177176  0  0  0  0  0  0  0  0999 V2000
    1.0578    0.0735    0.1394 C   0  0  0  0  0  0  0  0  0  0  0  0
    2.2725    0.3128    1.0257 C   0  0  0  0  0  0  0  0  0  0  0  0
    3.1913    0.2735    0.4307 H   0  0  0  0  0  0  0  0  0  0  0  0
    2.3603   -0.4664    1.7909 H   0  0  0  0  0  0  0  0  0  0  0  0
    2.2187    1.2874    1.5200 H   0  0  0  0  0  0  0  0  0  0  0  0
    1.2242   -1.1987   -0.4833 O   0  0  0  0  0  0  0  0  0  0  0  0
    1.0396    0.8388   -0.6447 H   0  0  0  0  0  0  0  0  0  0  0  0
   -0.2344    0.0993    0.9642 C   0  0  0  0  0  0  0  0  0  0  0  0
    0.6293   -1.2124   -1.2534 H   0  0  0  0  0  0  0  0  0  0  0  0
   -0.3020    1.0703    1.4711 H   0  0  0  0  0  0  0  0  0  0  0  0
   -0.1928   -0.6794    1.7361 H   0  0  0  0  0  0  0  0  0  0  0  0
   -1.4953   -0.1199    0.1192 C   0  0  0  0  0  0  0  0  0  0  0  0
   -1.4382   -1.0983   -0.3708 H   0  0  0  0  0  0  0  0  0  0  0  0
   -1.5377    0.8803   -0.8980 O   0  0  0  0  0  0  0  0  0  0  0  0
   -2.7553   -0.0419    0.9950 C   0  0  0  0  0  0  0  0  0  0  0  0
   -2.8000    0.9343    1.4939 H   0  0  0  0  0  0  0  0  0  0  0  0
   -2.6815   -0.8113    1.7740 H   0  0  0  0  0  0  0  0  0  0  0  0
   -4.0539   -0.2419    0.2041 C   0  0  0  0  0  0  0  0  0  0  0  0
   -3.9595   -1.4697   -0.5169 O   0  0  0  0  0  0  0  0  0  0  0  0
   -4.1581    0.5688   -0.5256 H   0  0  0  0  0  0  0  0  0  0  0  0
   -5.2718   -0.2616    1.1407 C   0  0  0  0  0  0  0  0  0  0  0  0
   -2.2133    0.5984   -1.5404 H   0  0  0  0  0  0  0  0  0  0  0  0
   -4.6966   -1.4826   -1.1533 H   0  0  0  0  0  0  0  0  0  0  0  0
   -5.3029    0.6889    1.6883 H   0  0  0  0  0  0  0  0  0  0  0  0
   -5.1622   -1.0681    1.8764 H   0  0  0  0  0  0  0  0  0  0  0  0
   -6.5940   -0.4628    0.3911 C   0  0  0  0  0  0  0  0  0  0  0  0
   -6.5805   -1.4422   -0.0995 H   0  0  0  0  0  0  0  0  0  0  0  0
   -6.6887    0.5344   -0.6264 O   0  0  0  0  0  0  0  0  0  0  0  0
   -7.7967   -0.3723    1.3423 C   0  0  0  0  0  0  0  0  0  0  0  0
   -7.8284    0.6197    1.8093 H   0  0  0  0  0  0  0  0  0  0  0  0
   -7.6693   -1.1164    2.1386 H   0  0  0  0  0  0  0  0  0  0  0  0
   -9.1270   -0.6197    0.6213 C   0  0  0  0  0  0  0  0  0  0  0  0
   -9.0484   -1.8865   -0.0340 O   0  0  0  0  0  0  0  0  0  0  0  0
   -9.2638    0.1477   -0.1481 H   0  0  0  0  0  0  0  0  0  0  0  0
  -10.3135   -0.5975    1.5956 C   0  0  0  0  0  0  0  0  0  0  0  0
   -7.4235    0.2785   -1.2117 H   0  0  0  0  0  0  0  0  0  0  0  0
   -9.8037   -1.9441   -0.6453 H   0  0  0  0  0  0  0  0  0  0  0  0
  -10.3077    0.3577    2.1352 H   0  0  0  0  0  0  0  0  0  0  0  0
  -10.2072   -1.4040    2.3313 H   0  0  0  0  0  0  0  0  0  0  0  0
  -11.6525   -0.7636    0.8673 C   0  0  0  0  0  0  0  0  0  0  0  0
  -11.6571   -1.7252    0.3435 H   0  0  0  0  0  0  0  0  0  0  0  0
  -11.7530    0.2694   -0.1148 O   0  0  0  0  0  0  0  0  0  0  0  0
  -12.8422   -0.6928    1.8342 C   0  0  0  0  0  0  0  0  0  0  0  0
  -12.8835    0.2977    2.3035 H   0  0  0  0  0  0  0  0  0  0  0  0
  -12.6992   -1.4393    2.6253 H   0  0  0  0  0  0  0  0  0  0  0  0
  -14.1697   -0.9598    1.1153 C   0  0  0  0  0  0  0  0  0  0  0  0
  -14.0822   -2.2405    0.4871 O   0  0  0  0  0  0  0  0  0  0  0  0
  -14.3074   -0.2102    0.3291 H   0  0  0  0  0  0  0  0  0  0  0  0
  -15.3612   -0.9247    2.0807 C   0  0  0  0  0  0  0  0  0  0  0  0
  -12.4929    0.0399   -0.7039 H   0  0  0  0  0  0  0  0  0  0  0  0
  -14.8310   -2.3146   -0.1300 H   0  0  0  0  0  0  0  0  0  0  0  0
  -15.3540    0.0324    2.6167 H   0  0  0  0  0  0  0  0  0  0  0  0
  -15.2676   -1.7303    2.8189 H   0  0  0  0  0  0  0  0  0  0  0  0
  -16.6917   -1.0814    1.3356 C   0  0  0  0  0  0  0  0  0  0  0  0
  -16.6923   -2.0370    0.8011 H   0  0  0  0  0  0  0  0  0  0  0  0
  -16.7797   -0.0373    0.3636 O   0  0  0  0  0  0  0  0  0  0  0  0
  -17.8908   -1.0182    2.2889 C   0  0  0  0  0  0  0  0  0  0  0  0
  -17.9420   -0.0290    2.7596 H   0  0  0  0  0  0  0  0  0  0  0  0
  -17.7540   -1.7662    3.0797 H   0  0  0  0  0  0  0  0  0  0  0  0
  -19.2071   -1.2905    1.5526 C   0  0  0  0  0  0  0  0  0  0  0  0
  -19.1084   -2.5730    0.9297 O   0  0  0  0  0  0  0  0  0  0  0  0
  -19.3373   -0.5438    0.7625 H   0  0  0  0  0  0  0  0  0  0  0  0
  -20.4079   -1.2562    2.5046 C   0  0  0  0  0  0  0  0  0  0  0  0
  -17.5131   -0.2583   -0.2367 H   0  0  0  0  0  0  0  0  0  0  0  0
  -19.8512   -2.6529    0.3060 H   0  0  0  0  0  0  0  0  0  0  0  0
  -20.4057   -0.3001    3.0425 H   0  0  0  0  0  0  0  0  0  0  0  0
  -20.3226   -2.0634    3.2421 H   0  0  0  0  0  0  0  0  0  0  0  0
  -21.7299   -1.4097    1.7454 C   0  0  0  0  0  0  0  0  0  0  0  0
  -21.7261   -2.3626    1.2061 H   0  0  0  0  0  0  0  0  0  0  0  0
  -21.8093   -0.3604    0.7784 O   0  0  0  0  0  0  0  0  0  0  0  0
  -22.9343   -1.3498    2.6909 C   0  0  0  0  0  0  0  0  0  0  0  0
  -22.9913   -0.3600    3.1599 H   0  0  0  0  0  0  0  0  0  0  0  0
  -22.7994   -2.0962    3.4835 H   0  0  0  0  0  0  0  0  0  0  0  0
  -24.2449   -1.6282    1.9484 C   0  0  0  0  0  0  0  0  0  0  0  0
  -24.1405   -2.9139    1.3336 O   0  0  0  0  0  0  0  0  0  0  0  0
  -24.3730   -0.8861    1.1537 H   0  0  0  0  0  0  0  0  0  0  0  0
  -25.4473   -1.5915    2.8972 C   0  0  0  0  0  0  0  0  0  0  0  0
  -22.5414   -0.5747    0.1738 H   0  0  0  0  0  0  0  0  0  0  0  0
  -24.8831   -3.0015    0.7101 H   0  0  0  0  0  0  0  0  0  0  0  0
  -25.4442   -0.6358    3.4358 H   0  0  0  0  0  0  0  0  0  0  0  0
  -25.3652   -2.3994    3.6344 H   0  0  0  0  0  0  0  0  0  0  0  0
  -26.7679   -1.7407    2.1357 C   0  0  0  0  0  0  0  0  0  0  0  0
  -26.7646   -2.6909    1.5918 H   0  0  0  0  0  0  0  0  0  0  0  0
  -26.8454   -0.6864    1.1744 O   0  0  0  0  0  0  0  0  0  0  0  0
  -27.9709   -1.6832    3.0827 C   0  0  0  0  0  0  0  0  0  0  0  0
  -28.0286   -0.6935    3.5521 H   0  0  0  0  0  0  0  0  0  0  0  0
  -27.8339   -2.4296    3.8749 H   0  0  0  0  0  0  0  0  0  0  0  0
  -29.2818   -1.9637    2.3423 C   0  0  0  0  0  0  0  0  0  0  0  0
  -29.1772   -3.2509    1.7308 O   0  0  0  0  0  0  0  0  0  0  0  0
  -29.4112   -1.2236    1.5460 H   0  0  0  0  0  0  0  0  0  0  0  0
  -30.4820   -1.9255    3.2938 C   0  0  0  0  0  0  0  0  0  0  0  0
  -27.5793   -0.8952    0.5694 H   0  0  0  0  0  0  0  0  0  0  0  0
  -29.9205   -3.3405    1.1082 H   0  0  0  0  0  0  0  0  0  0  0  0
  -30.4775   -0.9690    3.8310 H   0  0  0  0  0  0  0  0  0  0  0  0
  -30.3982   -2.7323    4.0320 H   0  0  0  0  0  0  0  0  0  0  0  0
  -31.8042   -2.0755    2.5357 C   0  0  0  0  0  0  0  0  0  0  0  0
  -31.8019   -3.0264    1.9929 H   0  0  0  0  0  0  0  0  0  0  0  0
  -31.8836   -1.0224    1.5732 O   0  0  0  0  0  0  0  0  0  0  0  0
  -33.0052   -2.0168    3.4854 C   0  0  0  0  0  0  0  0  0  0  0  0
  -33.0598   -1.0279    3.9566 H   0  0  0  0  0  0  0  0  0  0  0  0
  -32.8679   -2.7649    4.2760 H   0  0  0  0  0  0  0  0  0  0  0  0
  -34.3183   -2.2931    2.7472 C   0  0  0  0  0  0  0  0  0  0  0  0
  -34.2162   -3.5775    2.1294 O   0  0  0  0  0  0  0  0  0  0  0  0
  -34.4483   -1.5492    1.9544 H   0  0  0  0  0  0  0  0  0  0  0  0
  -35.5179   -2.2576    3.7004 C   0  0  0  0  0  0  0  0  0  0  0  0
  -32.6167   -1.2337    0.9683 H   0  0  0  0  0  0  0  0  0  0  0  0
  -34.9579   -3.6609    1.5044 H   0  0  0  0  0  0  0  0  0  0  0  0
  -35.5153   -1.3003    4.2363 H   0  0  0  0  0  0  0  0  0  0  0  0
  -35.4307   -3.0630    4.4398 H   0  0  0  0  0  0  0  0  0  0  0  0
  -36.8406   -2.4134    2.9439 C   0  0  0  0  0  0  0  0  0  0  0  0
  -36.8365   -3.3676    2.4072 H   0  0  0  0  0  0  0  0  0  0  0  0
  -36.9208   -1.3666    1.9743 O   0  0  0  0  0  0  0  0  0  0  0  0
  -38.0441   -2.3513    3.8913 C   0  0  0  0  0  0  0  0  0  0  0  0
  -38.0966   -1.3629    4.3636 H   0  0  0  0  0  0  0  0  0  0  0  0
  -37.9107   -3.1007    4.6814 H   0  0  0  0  0  0  0  0  0  0  0  0
  -39.3567   -2.6220    3.1491 C   0  0  0  0  0  0  0  0  0  0  0  0
  -39.2545   -3.9028    2.5236 O   0  0  0  0  0  0  0  0  0  0  0  0
  -39.4826   -1.8732    2.3602 H   0  0  0  0  0  0  0  0  0  0  0  0
  -40.5622   -2.5896    4.0962 C   0  0  0  0  0  0  0  0  0  0  0  0
  -37.6492   -1.5865    1.3672 H   0  0  0  0  0  0  0  0  0  0  0  0
  -39.9908   -3.9778    1.8914 H   0  0  0  0  0  0  0  0  0  0  0  0
  -40.5659   -1.6311    4.6298 H   0  0  0  0  0  0  0  0  0  0  0  0
  -40.4759   -3.3928    4.8379 H   0  0  0  0  0  0  0  0  0  0  0  0
  -41.8807   -2.7533    3.3323 C   0  0  0  0  0  0  0  0  0  0  0  0
  -41.8708   -3.7125    2.8043 H   0  0  0  0  0  0  0  0  0  0  0  0
  -41.9551   -1.7159    2.3521 O   0  0  0  0  0  0  0  0  0  0  0  0
  -43.0945   -2.6862    4.2674 C   0  0  0  0  0  0  0  0  0  0  0  0
  -43.1469   -1.6983    4.7409 H   0  0  0  0  0  0  0  0  0  0  0  0
  -42.9722   -3.4371    5.0577 H   0  0  0  0  0  0  0  0  0  0  0  0
  -44.4022   -2.9483    3.5113 C   0  0  0  0  0  0  0  0  0  0  0  0
  -44.2971   -4.2231    2.8743 O   0  0  0  0  0  0  0  0  0  0  0  0
  -44.5194   -2.1917    2.7285 H   0  0  0  0  0  0  0  0  0  0  0  0
  -45.6188   -2.9213    4.4451 C   0  0  0  0  0  0  0  0  0  0  0  0
  -42.6745   -1.9468    1.7385 H   0  0  0  0  0  0  0  0  0  0  0  0
  -45.0257   -4.2866    2.2318 H   0  0  0  0  0  0  0  0  0  0  0  0
  -45.6360   -1.9588    4.9712 H   0  0  0  0  0  0  0  0  0  0  0  0
  -45.5320   -3.7170    5.1949 H   0  0  0  0  0  0  0  0  0  0  0  0
  -46.9306   -3.1056    3.6719 C   0  0  0  0  0  0  0  0  0  0  0  0
  -46.9131   -4.0777    3.1676 H   0  0  0  0  0  0  0  0  0  0  0  0
  -47.0006   -2.0933    2.6664 O   0  0  0  0  0  0  0  0  0  0  0  0
  -48.1538   -3.0232    4.5938 C   0  0  0  0  0  0  0  0  0  0  0  0
  -48.1926   -2.0390    5.0765 H   0  0  0  0  0  0  0  0  0  0  0  0
  -48.0493   -3.7813    5.3799 H   0  0  0  0  0  0  0  0  0  0  0  0
  -49.4650   -3.2529    3.8303 C   0  0  0  0  0  0  0  0  0  0  0  0
  -49.3692   -4.5001    3.1413 O   0  0  0  0  0  0  0  0  0  0  0  0
  -49.5837   -2.4640    3.0796 H   0  0  0  0  0  0  0  0  0  0  0  0
  -50.6759   -3.2563    4.7720 C   0  0  0  0  0  0  0  0  0  0  0  0
  -47.7147   -2.3455    2.0544 H   0  0  0  0  0  0  0  0  0  0  0  0
  -50.1066   -4.5322    2.5058 H   0  0  0  0  0  0  0  0  0  0  0  0
  -50.7080   -2.2939    5.2979 H   0  0  0  0  0  0  0  0  0  0  0  0
  -50.5612   -4.0463    5.5243 H   0  0  0  0  0  0  0  0  0  0  0  0
  -51.9978   -3.4777    4.0237 C   0  0  0  0  0  0  0  0  0  0  0  0
  -51.9812   -4.4681    3.5555 H   0  0  0  0  0  0  0  0  0  0  0  0
  -52.0971   -2.5051    2.9840 O   0  0  0  0  0  0  0  0  0  0  0  0
  -53.2009   -3.3738    4.9698 C   0  0  0  0  0  0  0  0  0  0  0  0
  -53.2107   -2.3896    5.4543 H   0  0  0  0  0  0  0  0  0  0  0  0
  -53.0851   -4.1309    5.7557 H   0  0  0  0  0  0  0  0  0  0  0  0
  -54.5436   -3.5789    4.2533 C   0  0  0  0  0  0  0  0  0  0  0  0
  -54.4858   -4.8001    3.5184 O   0  0  0  0  0  0  0  0  0  0  0  0
  -54.6956   -2.7638    3.5368 H   0  0  0  0  0  0  0  0  0  0  0  0
  -55.7039   -3.6100    5.2569 C   0  0  0  0  0  0  0  0  0  0  0  0
  -52.8303   -2.7831    2.4059 H   0  0  0  0  0  0  0  0  0  0  0  0
  -55.2598   -4.8087    2.9262 H   0  0  0  0  0  0  0  0  0  0  0  0
  -55.7259   -2.6462    5.7812 H   0  0  0  0  0  0  0  0  0  0  0  0
  -55.5258   -4.3906    6.0071 H   0  0  0  0  0  0  0  0  0  0  0  0
  -57.0680   -3.8713    4.6032 C   0  0  0  0  0  0  0  0  0  0  0  0
  -57.0728   -4.8797    4.1735 H   0  0  0  0  0  0  0  0  0  0  0  0
  -57.2566   -2.9445    3.5363 O   0  0  0  0  0  0  0  0  0  0  0  0
  -58.1995   -3.7445    5.6303 C   0  0  0  0  0  0  0  0  0  0  0  0
  -58.1340   -2.7818    6.1514 H   0  0  0  0  0  0  0  0  0  0  0  0
  -58.0696   -4.5326    6.3822 H   0  0  0  0  0  0  0  0  0  0  0  0
  -59.5954   -3.8574    5.0280 C   0  0  0  0  0  0  0  0  0  0  0  0
  -59.6757   -4.9948    4.1811 O   0  0  0  0  0  0  0  0  0  0  0  0
  -59.8395   -2.9692    4.4366 H   0  0  0  0  0  0  0  0  0  0  0  0
  -60.3397   -3.9551    5.8247 H   0  0  0  0  0  0  0  0  0  0  0  0
  -58.0210   -3.2698    3.0245 H   0  0  0  0  0  0  0  0  0  0  0  0
  -60.6141   -5.1113    3.9478 H   0  0  0  0  0  0  0  0  0  0  0  0
  1  2  1  0  0  0  0
  3  2  1  0  0  0  0
  4  2  1  0  0  0  0
  5  2  1  0  0  0  0
  6  1  1  0  0  0  0
  7  1  1  0  0  0  0
  8  1  1  0  0  0  0
  9  6  1  0  0  0  0
 10  8  1  0  0  0  0
 11  8  1  0  0  0  0
 12  8  1  0  0  0  0
 13 12  1  0  0  0  0
 14 12  1  0  0  0  0
 15 12  1  0  0  0  0
 16 15  1  0  0  0  0
 17 15  1  0  0  0  0
 18 15  1  0  0  0  0
 19 18  1  0  0  0  0
 20 18  1  0  0  0  0
 21 18  1  0  0  0  0
 22 14  1  0  0  0  0
 23 19  1  0  0  0  0
 24 21  1  0  0  0  0
 25 21  1  0  0  0  0
 26 21  1  0  0  0  0
 27 26  1  0  0  0  0
 28 26  1  0  0  0  0
 29 26  1  0  0  0  0
 30 29  1  0  0  0  0
 31 29  1  0  0  0  0
 32 29  1  0  0  0  0
 33 32  1  0  0  0  0
 34 32  1  0  0  0  0
 35 32  1  0  0  0  0
 36 28  1  0  0  0  0
 37 33  1  0  0  0  0
 38 35  1  0  0  0  0
 39 35  1  0  0  0  0
 40 35  1  0  0  0  0
 41 40  1  0  0  0  0
 42 40  1  0  0  0  0
 43 40  1  0  0  0  0
 44 43  1  0  0  0  0
 45 43  1  0  0  0  0
 46 43  1  0  0  0  0
 47 46  1  0  0  0  0
 48 46  1  0  0  0  0
 49 46  1  0  0  0  0
 50 42  1  0  0  0  0
 51 47  1  0  0  0  0
 52 49  1  0  0  0  0
 53 49  1  0  0  0  0
 54 49  1  0  0  0  0
 55 54  1  0  0  0  0
 56 54  1  0  0  0  0
 57 54  1  0  0  0  0
 58 57  1  0  0  0  0
 59 57  1  0  0  0  0
 60 57  1  0  0  0  0
 61 60  1  0  0  0  0
 62 60  1  0  0  0  0
 63 60  1  0  0  0  0
 64 56  1  0  0  0  0
 65 61  1  0  0  0  0
 66 63  1  0  0  0  0
 67 63  1  0  0  0  0
 68 63  1  0  0  0  0
 69 68  1  0  0  0  0
 70 68  1  0  0  0  0
 71 68  1  0  0  0  0
 72 71  1  0  0  0  0
 73 71  1  0  0  0  0
 74 71  1  0  0  0  0
 75 74  1  0  0  0  0
 76 74  1  0  0  0  0
 77 74  1  0  0  0  0
 78 70  1  0  0  0  0
 79 75  1  0  0  0  0
 80 77  1  0  0  0  0
 81 77  1  0  0  0  0
 82 77  1  0  0  0  0
 83 82  1  0  0  0  0
 84 82  1  0  0  0  0
 85 82  1  0  0  0  0
 86 85  1  0  0  0  0
 87 85  1  0  0  0  0
 88 85  1  0  0  0  0
 89 88  1  0  0  0  0
 90 88  1  0  0  0  0
 91 88  1  0  0  0  0
 92 84  1  0  0  0  0
 93 89  1  0  0  0  0
 94 91  1  0  0  0  0
 95 91  1  0  0  0  0
 96 91  1  0  0  0  0
 97 96  1  0  0  0  0
 98 96  1  0  0  0  0
 99 96  1  0  0  0  0
100 99  1  0  0  0  0
101 99  1  0  0  0  0
102 99  1  0  0  0  0
103102  1  0  0  0  0
104102  1  0  0  0  0
105102  1  0  0  0  0
106 98  1  0  0  0  0
107103  1  0  0  0  0
108105  1  0  0  0  0
109105  1  0  0  0  0
110105  1  0  0  0  0
111110  1  0  0  0  0
112110  1  0  0  0  0
113110  1  0  0  0  0
114113  1  0  0  0  0
115113  1  0  0  0  0
116113  1  0  0  0  0
117116  1  0  0  0  0
118116  1  0  0  0  0
119116  1  0  0  0  0
120112  1  0  0  0  0
121117  1  0  0  0  0
122119  1  0  0  0  0
123119  1  0  0  0  0
124119  1  0  0  0  0
125124  1  0  0  0  0
126124  1  0  0  0  0
127124  1  0  0  0  0
128127  1  0  0  0  0
129127  1  0  0  0  0
130127  1  0  0  0  0
131130  1  0  0  0  0
132130  1  0  0  0  0
133130  1  0  0  0  0
134126  1  0  0  0  0
135131  1  0  0  0  0
136133  1  0  0  0  0
137133  1  0  0  0  0
138133  1  0  0  0  0
139138  1  0  0  0  0
140138  1  0  0  0  0
141138  1  0  0  0  0
142141  1  0  0  0  0
143141  1  0  0  0  0
144141  1  0  0  0  0
145144  1  0  0  0  0
146144  1  0  0  0  0
147144  1  0  0  0  0
148140  1  0  0  0  0
149145  1  0  0  0  0
150147  1  0  0  0  0
151147  1  0  0  0  0
152147  1  0  0  0  0
153152  1  0  0  0  0
154152  1  0  0  0  0
155152  1  0  0  0  0
156155  1  0  0  0  0
157155  1  0  0  0  0
158155  1  0  0  0  0
159158  1  0  0  0  0
160158  1  0  0  0  0
161158  1  0  0  0  0
162154  1  0  0  0  0
163159  1  0  0  0  0
164161  1  0  0  0  0
165161  1  0  0  0  0
166161  1  0  0  0  0
167166  1  0  0  0  0
168166  1  0  0  0  0
169166  1  0  0  0  0
170169  1  0  0  0  0
171169  1  0  0  0  0
172169  1  0  0  0  0
173172  1  0  0  0  0
174172  1  0  0  0  0
175172  1  0  0  0  0
176168  1  0  0  0  0
177173  1  0  0  0  0
M  END
