file:/home/renata/Renata/MOLFILES/IPB/POLY_IPB19.mol
__Jmol-12_06131310123D 1   1.00000     0.00000     0
Jmol version 12.3.28  2012-05-30 15:29 EXTRACT: ({0:229})
230229  0  0  0  0              1 V2000
   0.10594   0.42045  -0.54468 C   0  0  0  0  0  0
   0.82309   0.87481   0.73647 C   0  0  0  0  0  0
  -1.38286   0.22320  -0.25039 C   0  0  0  0  0  0
   0.22107   1.24463  -1.30233 H   0  0  0  0  0  0
   0.77552  -0.83302  -1.11519 C   0  0  0  0  0  0
   0.54396  -2.09108  -0.29683 C   0  0  0  0  0  0
   0.83477   0.04980   1.47970 H   0  0  0  0  0  0
   0.24815   1.67836   1.24251 H   0  0  0  0  0  0
   2.25037   1.35561   0.43940 C   0  0  0  0  0  0
   2.22322   2.63556  -0.40194 C   0  0  0  0  0  0
   2.76533   0.55908  -0.17387 H   0  0  0  0  0  0
   3.02534   1.51556   1.74976 C   0  0  0  0  0  0
   2.93573   0.58689   2.35433 H   0  0  0  0  0  0
   2.54381   2.28649   2.38807 H   0  0  0  0  0  0
   4.50855   1.84916   1.53033 C   0  0  0  0  0  0
   1.82236   3.88367   0.36423 C   0  0  0  0  0  0
   1.52502   2.48714  -1.26008 H   0  0  0  0  0  0
   3.20952   2.79529  -0.88832 H   0  0  0  0  0  0
   2.59626   4.22331   1.06803 H   0  0  0  0  0  0
   0.89981   3.75248   0.94661 H   0  0  0  0  0  0
   1.64025   4.73069  -0.31515 H   0  0  0  0  0  0
   4.56815   2.80158   0.94278 H   0  0  0  0  0  0
   5.20202   0.75569   0.71263 C   0  0  0  0  0  0
   5.17107   2.08256   2.89259 C   0  0  0  0  0  0
   5.07398   1.16991   3.52037 H   0  0  0  0  0  0
   4.59828   2.84592   3.46314 H   0  0  0  0  0  0
   6.64420   2.49679   2.80435 C   0  0  0  0  0  0
   4.61143   0.56422  -0.21411 H   0  0  0  0  0  0
   5.40199  -0.55309   1.45641 C   0  0  0  0  0  0
   6.17860   1.12446   0.33149 H   0  0  0  0  0  0
   4.47527  -0.93731   1.90461 H   0  0  0  0  0  0
   6.14106  -0.48120   2.26735 H   0  0  0  0  0  0
   5.76914  -1.34381   0.78383 H   0  0  0  0  0  0
  -0.49231  -2.45520  -0.34771 H   0  0  0  0  0  0
   0.77981  -1.95759   0.76855 H   0  0  0  0  0  0
   1.17378  -2.92172  -0.65075 H   0  0  0  0  0  0
   1.87253  -0.64629  -1.20299 H   0  0  0  0  0  0
   0.45029  -0.99996  -2.16426 H   0  0  0  0  0  0
  -1.80424   1.15113   0.19432 H   0  0  0  0  0  0
  -1.50746  -0.52856   0.55947 H   0  0  0  0  0  0
  -2.21079  -0.18785  -1.47288 C   0  0  0  0  0  0
  -1.80997  -1.16031  -1.85922 H   0  0  0  0  0  0
  -2.13272   0.83134  -2.61317 C   0  0  0  0  0  0
  -3.66628  -0.41032  -1.03582 C   0  0  0  0  0  0
  -1.13120   0.79335  -3.09303 H   0  0  0  0  0  0
  -2.45195   2.25793  -2.20252 C   0  0  0  0  0  0
  -2.82894   0.51932  -3.42711 H   0  0  0  0  0  0
  -1.68851   2.69992  -1.54668 H   0  0  0  0  0  0
  -3.41244   2.34776  -1.67645 H   0  0  0  0  0  0
  -2.51802   2.92178  -3.07841 H   0  0  0  0  0  0
  -4.08746   0.53918  -0.63943 H   0  0  0  0  0  0
  -3.71077  -1.09539  -0.16286 H   0  0  0  0  0  0
  -4.55257  -0.93654  -2.16789 C   0  0  0  0  0  0
  -4.11822  -2.31378  -2.67908 C   0  0  0  0  0  0
  -4.47573  -0.21544  -3.03395 H   0  0  0  0  0  0
  -6.01638  -0.96552  -1.70686 C   0  0  0  0  0  0
  -3.87911  -3.34371  -1.58932 C   0  0  0  0  0  0
  -3.20795  -2.21820  -3.30937 H   0  0  0  0  0  0
  -4.89169  -2.69638  -3.38696 H   0  0  0  0  0  0
  -4.70824  -3.41050  -0.87130 H   0  0  0  0  0  0
  -2.96788  -3.14724  -1.00543 H   0  0  0  0  0  0
  -3.75467  -4.35287  -2.01139 H   0  0  0  0  0  0
   6.84974   3.79196   2.01367 C   0  0  0  0  0  0
   7.20713   1.68397   2.27654 H   0  0  0  0  0  0
   7.21055   2.62262   4.22656 C   0  0  0  0  0  0
   7.01010   1.69627   4.80549 H   0  0  0  0  0  0
   6.64994   3.40269   4.78605 H   0  0  0  0  0  0
   8.70828   2.94929   4.24750 C   0  0  0  0  0  0
   5.98385   4.95200   2.47253 C   0  0  0  0  0  0
   6.68819   3.60806   0.92974 H   0  0  0  0  0  0
   7.92319   4.08907   2.07471 H   0  0  0  0  0  0
   6.06106   5.14366   3.55186 H   0  0  0  0  0  0
   4.91652   4.80872   2.25059 H   0  0  0  0  0  0
   6.27213   5.88959   1.97253 H   0  0  0  0  0  0
  -6.28739  -0.01155  -1.20753 H   0  0  0  0  0  0
  -6.14876  -1.72823  -0.91108 H   0  0  0  0  0  0
  -6.97229  -1.23486  -2.87714 C   0  0  0  0  0  0
  -6.61446  -2.16377  -3.41128 H   0  0  0  0  0  0
  -6.93270  -0.08311  -3.88611 C   0  0  0  0  0  0
  -8.37897  -1.51186  -2.33997 C   0  0  0  0  0  0
  -5.86772   0.15543  -4.11975 H   0  0  0  0  0  0
  -7.64326   1.17872  -3.42962 C   0  0  0  0  0  0
  -7.34932  -0.41494  -4.86141 H   0  0  0  0  0  0
  -7.34126   1.50215  -2.42388 H   0  0  0  0  0  0
  -8.73767   1.07321  -3.41443 H   0  0  0  0  0  0
  -7.43125   2.02441  -4.10194 H   0  0  0  0  0  0
  -8.76768  -0.61926  -1.80577 H   0  0  0  0  0  0
  -8.33262  -2.28844  -1.54575 H   0  0  0  0  0  0
  -9.35867  -1.95464  -3.43459 C   0  0  0  0  0  0
  -8.87573  -3.23714  -4.11875 C   0  0  0  0  0  0
  -9.41207  -1.15216  -4.22110 H   0  0  0  0  0  0
 -10.76004  -2.09485  -2.82906 C   0  0  0  0  0  0
   8.85424   3.89117   3.65038 H   0  0  0  0  0  0
   9.56436   1.85642   3.60009 C   0  0  0  0  0  0
   9.14689   3.20827   5.69484 C   0  0  0  0  0  0
   8.98494   2.29186   6.30316 H   0  0  0  0  0  0
   8.48105   3.95684   6.17408 H   0  0  0  0  0  0
  10.61078   3.65090   5.80541 C   0  0  0  0  0  0
  -9.01350  -4.49114  -3.27371 C   0  0  0  0  0  0
  -7.80859  -3.10992  -4.41812 H   0  0  0  0  0  0
  -9.40613  -3.37717  -5.08519 H   0  0  0  0  0  0
 -10.05845  -4.80476  -3.13742 H   0  0  0  0  0  0
  -8.58027  -4.38221  -2.26980 H   0  0  0  0  0  0
  -8.50035  -5.34676  -3.73929 H   0  0  0  0  0  0
   9.45574   1.89073   2.49467 H   0  0  0  0  0  0
   9.27469   0.45183   4.09915 C   0  0  0  0  0  0
  10.64198   2.09189   3.76738 H   0  0  0  0  0  0
   8.30161   0.06712   3.76059 H   0  0  0  0  0  0
   9.28357   0.37517   5.19516 H   0  0  0  0  0  0
  10.02552  -0.26609   3.73420 H   0  0  0  0  0  0
  10.88237   4.98239   5.09875 C   0  0  0  0  0  0
  11.23773   2.86585   5.29897 H   0  0  0  0  0  0
  11.00483   3.71872   7.28657 C   0  0  0  0  0  0
  10.76060   2.76259   7.79621 H   0  0  0  0  0  0
  10.36376   4.46163   7.80927 H   0  0  0  0  0  0
  12.48179   4.07136   7.49875 C   0  0  0  0  0  0
   9.91679   6.09626   5.46255 C   0  0  0  0  0  0
  10.88650   4.83586   3.99711 H   0  0  0  0  0  0
  11.92441   5.30954   5.32590 H   0  0  0  0  0  0
   9.80606   6.23095   6.54745 H   0  0  0  0  0  0
   8.90748   5.93925   5.05561 H   0  0  0  0  0  0
  10.25431   7.06583   5.06485 H   0  0  0  0  0  0
 -11.02129  -1.16889  -2.27188 H   0  0  0  0  0  0
 -10.76252  -2.87917  -2.04267 H   0  0  0  0  0  0
 -11.84098  -2.38567  -3.87843 C   0  0  0  0  0  0
 -11.58428  -3.34436  -4.40767 H   0  0  0  0  0  0
 -11.89762  -1.27802  -4.93487 C   0  0  0  0  0  0
 -13.18349  -2.59940  -3.16942 C   0  0  0  0  0  0
 -10.86633  -1.08144  -5.31195 H   0  0  0  0  0  0
 -12.51071   0.02395  -4.45036 C   0  0  0  0  0  0
 -12.44303  -1.63625  -5.83459 H   0  0  0  0  0  0
 -12.06775   0.38330  -3.51120 H   0  0  0  0  0  0
 -13.59560  -0.04711  -4.28489 H   0  0  0  0  0  0
 -12.37063   0.83145  -5.18548 H   0  0  0  0  0  0
 -13.48839  -1.67495  -2.63477 H   0  0  0  0  0  0
 -13.06111  -3.34132  -2.35051 H   0  0  0  0  0  0
 -14.29645  -3.05879  -4.12237 C   0  0  0  0  0  0
 -13.92687  -4.38081  -4.80067 C   0  0  0  0  0  0
 -14.41448  -2.28280  -4.92400 H   0  0  0  0  0  0
 -15.61510  -3.13723  -3.34572 C   0  0  0  0  0  0
 -13.93675  -5.58433  -3.87466 C   0  0  0  0  0  0
 -12.91651  -4.28155  -5.26313 H   0  0  0  0  0  0
 -14.59695  -4.56876  -5.66689 H   0  0  0  0  0  0
 -14.94506  -5.85873  -3.53323 H   0  0  0  0  0  0
 -13.32537  -5.43679  -2.97349 H   0  0  0  0  0  0
 -13.53442  -6.47845  -4.37576 H   0  0  0  0  0  0
  12.67426   5.04354   6.96646 H   0  0  0  0  0  0
  13.43233   3.02682   6.90644 C   0  0  0  0  0  0
  12.74120   4.26865   8.99798 C   0  0  0  0  0  0
  12.52195   3.32432   9.54211 H   0  0  0  0  0  0
  12.01147   4.98813   9.42601 H   0  0  0  0  0  0
  14.17426   4.72053   9.30307 C   0  0  0  0  0  0
  13.44508   3.10714   5.79811 H   0  0  0  0  0  0
  13.12593   1.59598   7.31201 C   0  0  0  0  0  0
  14.47836   3.27731   7.20210 H   0  0  0  0  0  0
  12.20310   1.20860   6.85690 H   0  0  0  0  0  0
  13.02234   1.47069   8.39873 H   0  0  0  0  0  0
  13.92770   0.90984   6.99797 H   0  0  0  0  0  0
  14.50931   6.08358   8.69090 C   0  0  0  0  0  0
  14.86974   3.96317   8.84598 H   0  0  0  0  0  0
  14.38589   4.72703  10.82208 C   0  0  0  0  0  0
  14.10606   3.74302  11.25489 H   0  0  0  0  0  0
  13.67317   5.43321  11.30085 H   0  0  0  0  0  0
  15.81523   5.09382  11.22877 C   0  0  0  0  0  0
  13.49170   7.17160   8.98454 C   0  0  0  0  0  0
  14.64537   5.98532   7.59222 H   0  0  0  0  0  0
  15.51247   6.40995   9.05297 H   0  0  0  0  0  0
  13.24958   7.25596  10.05299 H   0  0  0  0  0  0
  12.54055   7.02431   8.45294 H   0  0  0  0  0  0
  13.86048   8.16107   8.67288 H   0  0  0  0  0  0
 -15.80386  -2.16575  -2.83854 H   0  0  0  0  0  0
 -15.51642  -3.85267  -2.50063 H   0  0  0  0  0  0
 -16.82647  -3.51655  -4.20876 C   0  0  0  0  0  0
 -16.65055  -4.54017  -4.63149 H   0  0  0  0  0  0
 -17.02080  -2.55660  -5.38394 C   0  0  0  0  0  0
 -18.06199  -3.58672  -3.30261 C   0  0  0  0  0  0
 -16.13173  -2.59406  -6.05212 H   0  0  0  0  0  0
 -17.28569  -1.11889  -4.97514 C   0  0  0  0  0  0
 -17.84349  -2.91703  -6.03902 H   0  0  0  0  0  0
 -16.45447  -0.67514  -4.40897 H   0  0  0  0  0  0
 -18.18971  -1.00688  -4.36054 H   0  0  0  0  0  0
 -17.43348  -0.47266  -5.85433 H   0  0  0  0  0  0
  16.05956   6.09874  10.78287 H   0  0  0  0  0  0
  16.86419   4.10360  10.71577 C   0  0  0  0  0  0
  15.89227   5.21978  12.74776 C   0  0  0  0  0  0
  15.56934   4.30939  13.27180 H   0  0  0  0  0  0
  15.25594   6.03430  13.12509 H   0  0  0  0  0  0
  17.28291   5.51969  13.22336 C   0  0  0  0  0  0
  16.98104   4.20695   9.61514 H   0  0  0  0  0  0
  16.57339   2.65533  11.06553 C   0  0  0  0  0  0
  17.86383   4.38932  11.11187 H   0  0  0  0  0  0
  15.70854   2.25021  10.52067 H   0  0  0  0  0  0
  16.37626   2.50289  12.13554 H   0  0  0  0  0  0
  17.42292   2.00231  10.81246 H   0  0  0  0  0  0
 -18.20896  -2.62098  -2.77120 H   0  0  0  0  0  0
 -17.87832  -4.30931  -2.47712 H   0  0  0  0  0  0
 -19.35384  -3.95684  -4.02297 C   0  0  0  0  0  0
 -19.29732  -5.28935  -4.76307 C   0  0  0  0  0  0
 -19.65374  -3.14880  -4.72432 H   0  0  0  0  0  0
 -20.47269  -3.99163  -3.02449 C   0  0  0  0  0  0
 -18.95098  -6.44645  -3.84167 C   0  0  0  0  0  0
 -18.58604  -5.24657  -5.61426 H   0  0  0  0  0  0
 -20.28028  -5.47816  -5.24906 H   0  0  0  0  0  0
 -19.56270  -6.45151  -2.92798 H   0  0  0  0  0  0
 -17.89930  -6.43365  -3.52079 H   0  0  0  0  0  0
 -19.10915  -7.41875  -4.33167 H   0  0  0  0  0  0
  17.74760   6.81445  12.62532 C   0  0  0  0  0  0
  17.95914   4.70923  12.91373 H   0  0  0  0  0  0
  17.28690   5.63004  14.71930 C   0  0  0  0  0  0
  16.94619   4.68056  15.15796 H   0  0  0  0  0  0
  16.61073   6.44051  15.02903 H   0  0  0  0  0  0
  18.30670   5.84997  15.06807 H   0  0  0  0  0  0
  16.82559   7.91973  13.04755 C   0  0  0  0  0  0
  17.74477   6.73361  11.52829 H   0  0  0  0  0  0
  18.76740   7.03438  12.97409 H   0  0  0  0  0  0
  16.82840   8.00069  14.14456 H   0  0  0  0  0  0
  15.80576   7.69992  12.69877 H   0  0  0  0  0  0
  17.16637   8.86922  12.60898 H   0  0  0  0  0  0
 -20.57779  -3.00154  -2.55685 H   0  0  0  0  0  0
 -20.25030  -4.74092  -2.25046 H   0  0  0  0  0  0
 -21.75165  -4.35477  -3.71904 C   0  0  0  0  0  0
 -21.64667  -5.34488  -4.18666 H   0  0  0  0  0  0
 -22.05508  -3.33303  -4.77450 C   0  0  0  0  0  0
 -22.57215  -4.38028  -2.98682 H   0  0  0  0  0  0
 -21.23466  -3.30749  -5.50681 H   0  0  0  0  0  0
 -22.19834  -1.98284  -4.13695 C   0  0  0  0  0  0
 -22.99298  -3.59934  -5.28384 H   0  0  0  0  0  0
 -21.26046  -1.71641  -3.62763 H   0  0  0  0  0  0
 -23.01878  -2.00826  -3.40467 H   0  0  0  0  0  0
 -22.42086  -1.23356  -4.91096 H   0  0  0  0  0  0
  1  4  1  0  0  0
  1  5  1  0  0  0
  2  1  1  0  0  0
  2  7  1  0  0  0
  3  1  1  0  0  0
  3 40  1  0  0  0
  5  6  1  0  0  0
  6 34  1  0  0  0
  6 35  1  0  0  0
  6 36  1  0  0  0
  8  2  1  0  0  0
  9  2  1  0  0  0
  9 12  1  0  0  0
  9 11  1  0  0  0
 10  9  1  0  0  0
 12 13  1  0  0  0
 14 12  1  0  0  0
 15 22  1  0  0  0
 15 12  1  0  0  0
 15 24  1  0  0  0
 15 23  1  0  0  0
 16 20  1  0  0  0
 16 10  1  0  0  0
 17 10  1  0  0  0
 18 10  1  0  0  0
 19 16  1  0  0  0
 21 16  1  0  0  0
 23 29  1  0  0  0
 24 25  1  0  0  0
 26 24  1  0  0  0
 27 24  1  0  0  0
 27 65  1  0  0  0
 27 64  1  0  0  0
 28 23  1  0  0  0
 29 32  1  0  0  0
 29 31  1  0  0  0
 29 33  1  0  0  0
 30 23  1  0  0  0
 37  5  1  0  0  0
 38  5  1  0  0  0
 39  3  1  0  0  0
 41  3  1  0  0  0
 41 44  1  0  0  0
 41 42  1  0  0  0
 43 45  1  0  0  0
 43 41  1  0  0  0
 44 53  1  0  0  0
 44 52  1  0  0  0
 46 43  1  0  0  0
 47 43  1  0  0  0
 48 46  1  0  0  0
 49 46  1  0  0  0
 50 46  1  0  0  0
 51 44  1  0  0  0
 53 55  1  0  0  0
 53 54  1  0  0  0
 54 59  1  0  0  0
 54 57  1  0  0  0
 56 53  1  0  0  0
 56 76  1  0  0  0
 57 60  1  0  0  0
 57 61  1  0  0  0
 57 62  1  0  0  0
 58 54  1  0  0  0
 63 27  1  0  0  0
 65 66  1  0  0  0
 67 65  1  0  0  0
 68 93  1  0  0  0
 68 65  1  0  0  0
 68 95  1  0  0  0
 68 94  1  0  0  0
 69 72  1  0  0  0
 69 63  1  0  0  0
 70 63  1  0  0  0
 71 63  1  0  0  0
 73 69  1  0  0  0
 74 69  1  0  0  0
 75 56  1  0  0  0
 77 80  1  0  0  0
 77 56  1  0  0  0
 77 78  1  0  0  0
 79 83  1  0  0  0
 79 77  1  0  0  0
 80 88  1  0  0  0
 81 79  1  0  0  0
 82 79  1  0  0  0
 84 82  1  0  0  0
 85 82  1  0  0  0
 86 82  1  0  0  0
 87 80  1  0  0  0
 89 91  1  0  0  0
 89 80  1  0  0  0
 89 92  1  0  0  0
 89 90  1  0  0  0
 90 99  1  0  0  0
 92124  1  0  0  0
 94107  1  0  0  0
 94106  1  0  0  0
 95 96  1  0  0  0
 97 95  1  0  0  0
 98 95  1  0  0  0
 98113  1  0  0  0
 98112  1  0  0  0
 99102  1  0  0  0
 99103  1  0  0  0
 99104  1  0  0  0
100 90  1  0  0  0
101 90  1  0  0  0
105 94  1  0  0  0
106108  1  0  0  0
106109  1  0  0  0
106110  1  0  0  0
111 98  1  0  0  0
113114  1  0  0  0
115113  1  0  0  0
116147  1  0  0  0
116113  1  0  0  0
116149  1  0  0  0
116148  1  0  0  0
117120  1  0  0  0
117111  1  0  0  0
118111  1  0  0  0
119111  1  0  0  0
121117  1  0  0  0
122117  1  0  0  0
123 92  1  0  0  0
125128  1  0  0  0
125 92  1  0  0  0
125126  1  0  0  0
127131  1  0  0  0
127125  1  0  0  0
128137  1  0  0  0
128136  1  0  0  0
129127  1  0  0  0
130127  1  0  0  0
132130  1  0  0  0
133130  1  0  0  0
134130  1  0  0  0
135128  1  0  0  0
137139  1  0  0  0
137140  1  0  0  0
137138  1  0  0  0
138141  1  0  0  0
140172  1  0  0  0
141144  1  0  0  0
141145  1  0  0  0
141146  1  0  0  0
142138  1  0  0  0
143138  1  0  0  0
148155  1  0  0  0
148154  1  0  0  0
149150  1  0  0  0
151149  1  0  0  0
152149  1  0  0  0
152161  1  0  0  0
152160  1  0  0  0
153148  1  0  0  0
154156  1  0  0  0
154157  1  0  0  0
154158  1  0  0  0
159152  1  0  0  0
161162  1  0  0  0
163161  1  0  0  0
164183  1  0  0  0
164161  1  0  0  0
164185  1  0  0  0
164184  1  0  0  0
165168  1  0  0  0
165159  1  0  0  0
166159  1  0  0  0
167159  1  0  0  0
169165  1  0  0  0
170165  1  0  0  0
171140  1  0  0  0
173140  1  0  0  0
173176  1  0  0  0
173174  1  0  0  0
175177  1  0  0  0
175179  1  0  0  0
175173  1  0  0  0
176196  1  0  0  0
178175  1  0  0  0
180178  1  0  0  0
181178  1  0  0  0
182178  1  0  0  0
184190  1  0  0  0
185188  1  0  0  0
185186  1  0  0  0
187185  1  0  0  0
189184  1  0  0  0
190192  1  0  0  0
190193  1  0  0  0
190194  1  0  0  0
191184  1  0  0  0
195176  1  0  0  0
197176  1  0  0  0
197200  1  0  0  0
197198  1  0  0  0
198201  1  0  0  0
199197  1  0  0  0
201204  1  0  0  0
201205  1  0  0  0
201206  1  0  0  0
202198  1  0  0  0
203198  1  0  0  0
207188  1  0  0  0
208188  1  0  0  0
209188  1  0  0  0
210209  1  0  0  0
211209  1  0  0  0
212209  1  0  0  0
213207  1  0  0  0
214207  1  0  0  0
215207  1  0  0  0
216213  1  0  0  0
217213  1  0  0  0
218213  1  0  0  0
219200  1  0  0  0
220200  1  0  0  0
221200  1  0  0  0
222221  1  0  0  0
223221  1  0  0  0
224221  1  0  0  0
225223  1  0  0  0
226223  1  0  0  0
227223  1  0  0  0
228226  1  0  0  0
229226  1  0  0  0
230226  1  0  0  0
M  END
