
 OpenBabel07181214413D

308307  0  0  0  0  0  0  0  0999 V2000
   -7.7342   -0.0415   -2.1223 O   0  0  0  0  0  0  0  0  0  0  0  0
   -6.5473   -0.7098   -2.0411 C   0  0  0  0  0  0  0  0  0  0  0  0
   -5.5007    0.1934   -1.4281 C   0  0  0  0  0  0  0  0  0  0  0  0
   -4.1420   -0.4987   -1.3096 C   0  0  0  0  0  0  0  0  0  0  0  0
   -3.0930    0.4255   -0.6864 C   0  0  0  0  0  0  0  0  0  0  0  0
   -1.7348   -0.2663   -0.5689 C   0  0  0  0  0  0  0  0  0  0  0  0
   -0.6831    0.6485    0.0535 C   0  0  0  0  0  0  0  0  0  0  0  0
    0.5549   -0.0741    0.1241 O   0  0  0  0  0  0  0  0  0  0  0  0
    1.5891    0.6310    0.6676 C   0  0  0  0  0  0  0  0  0  0  0  0
    2.8305   -0.2318    0.6839 C   0  0  0  0  0  0  0  0  0  0  0  0
    4.0362    0.4960    1.2807 C   0  0  0  0  0  0  0  0  0  0  0  0
    5.2797   -0.3959    1.2767 C   0  0  0  0  0  0  0  0  0  0  0  0
    6.4941    0.3166    1.8727 C   0  0  0  0  0  0  0  0  0  0  0  0
    7.7301   -0.5795    1.8574 C   0  0  0  0  0  0  0  0  0  0  0  0
   -6.3641   -1.8613   -2.4087 O   0  0  0  0  0  0  0  0  0  0  0  0
   -5.4073    1.0843   -2.0590 H   0  0  0  0  0  0  0  0  0  0  0  0
   -5.8499    0.4938   -0.4339 H   0  0  0  0  0  0  0  0  0  0  0  0
   -4.2426   -1.4059   -0.7007 H   0  0  0  0  0  0  0  0  0  0  0  0
   -3.8056   -0.8220   -2.3026 H   0  0  0  0  0  0  0  0  0  0  0  0
   -2.9917    1.3300   -1.2983 H   0  0  0  0  0  0  0  0  0  0  0  0
   -3.4293    0.7437    0.3078 H   0  0  0  0  0  0  0  0  0  0  0  0
   -1.8245   -1.1779    0.0351 H   0  0  0  0  0  0  0  0  0  0  0  0
   -1.3897   -0.5945   -1.5574 H   0  0  0  0  0  0  0  0  0  0  0  0
   -0.5480    1.5427   -0.5660 H   0  0  0  0  0  0  0  0  0  0  0  0
   -0.9913    0.9435    1.0633 H   0  0  0  0  0  0  0  0  0  0  0  0
    1.5173    1.7812    1.0754 O   0  0  0  0  0  0  0  0  0  0  0  0
    2.6131   -1.1294    1.2735 H   0  0  0  0  0  0  0  0  0  0  0  0
    3.0522   -0.5272   -0.3478 H   0  0  0  0  0  0  0  0  0  0  0  0
    4.2355    1.4111    0.7093 H   0  0  0  0  0  0  0  0  0  0  0  0
    3.8077    0.8086    2.3073 H   0  0  0  0  0  0  0  0  0  0  0  0
    5.0758   -1.3096    1.8484 H   0  0  0  0  0  0  0  0  0  0  0  0
    5.5051   -0.7030    0.2481 H   0  0  0  0  0  0  0  0  0  0  0  0
    6.7064    1.2378    1.3159 H   0  0  0  0  0  0  0  0  0  0  0  0
    6.2842    0.6290    2.9032 H   0  0  0  0  0  0  0  0  0  0  0  0
    8.8285    0.1440    2.4305 O   0  0  0  0  0  0  0  0  0  0  0  0
    7.5435   -1.4845    2.4476 H   0  0  0  0  0  0  0  0  0  0  0  0
    7.9769   -0.8586    0.8262 H   0  0  0  0  0  0  0  0  0  0  0  0
   -8.8056   -0.8080   -2.6918 C   0  0  0  0  0  0  0  0  0  0  0  0
   -8.9816   -1.6996   -2.0787 H   0  0  0  0  0  0  0  0  0  0  0  0
   -8.5363   -1.1097   -3.7108 H   0  0  0  0  0  0  0  0  0  0  0  0
  -10.0576    0.0646   -2.7181 C   0  0  0  0  0  0  0  0  0  0  0  0
   -9.8519    0.9755   -3.2942 H   0  0  0  0  0  0  0  0  0  0  0  0
  -10.2867    0.3998   -1.6988 H   0  0  0  0  0  0  0  0  0  0  0  0
  -11.2551   -0.6773   -3.3121 C   0  0  0  0  0  0  0  0  0  0  0  0
  -11.4550   -1.5809   -2.7237 H   0  0  0  0  0  0  0  0  0  0  0  0
  -11.0160   -1.0019   -4.3321 H   0  0  0  0  0  0  0  0  0  0  0  0
  -12.5058    0.2045   -3.3361 C   0  0  0  0  0  0  0  0  0  0  0  0
  -12.3067    1.1108   -3.9217 H   0  0  0  0  0  0  0  0  0  0  0  0
  -12.7442    0.5344   -2.3172 H   0  0  0  0  0  0  0  0  0  0  0  0
  -13.7050   -0.5365   -3.9292 C   0  0  0  0  0  0  0  0  0  0  0  0
  -13.9222   -1.4271   -3.3290 H   0  0  0  0  0  0  0  0  0  0  0  0
  -13.4785   -0.8436   -4.9563 H   0  0  0  0  0  0  0  0  0  0  0  0
  -14.9469    0.3257   -3.9588 C   0  0  0  0  0  0  0  0  0  0  0  0
  -15.0173    1.4825   -3.5693 O   0  0  0  0  0  0  0  0  0  0  0  0
  -15.9830   -0.3858   -4.4897 O   0  0  0  0  0  0  0  0  0  0  0  0
  -17.2186    0.3402   -4.5666 C   0  0  0  0  0  0  0  0  0  0  0  0
  -17.0819    1.2261   -5.1978 H   0  0  0  0  0  0  0  0  0  0  0  0
  -17.5228    0.6496   -3.5598 H   0  0  0  0  0  0  0  0  0  0  0  0
  -18.2765   -0.5768   -5.1740 C   0  0  0  0  0  0  0  0  0  0  0  0
  -18.3684   -1.4808   -4.5590 H   0  0  0  0  0  0  0  0  0  0  0  0
  -17.9371   -0.9180   -6.1600 H   0  0  0  0  0  0  0  0  0  0  0  0
  -19.6315    0.1210   -5.2938 C   0  0  0  0  0  0  0  0  0  0  0  0
  -19.5279    1.0185   -5.9156 H   0  0  0  0  0  0  0  0  0  0  0  0
  -19.9627    0.4513   -4.3018 H   0  0  0  0  0  0  0  0  0  0  0  0
  -20.6869   -0.8044   -5.9034 C   0  0  0  0  0  0  0  0  0  0  0  0
  -20.7898   -1.7047   -5.2847 H   0  0  0  0  0  0  0  0  0  0  0  0
  -20.3555   -1.1397   -6.8942 H   0  0  0  0  0  0  0  0  0  0  0  0
  -22.0428   -0.1075   -6.0247 C   0  0  0  0  0  0  0  0  0  0  0  0
  -21.9472    0.7773   -6.6638 H   0  0  0  0  0  0  0  0  0  0  0  0
  -22.3888    0.2032   -5.0326 H   0  0  0  0  0  0  0  0  0  0  0  0
  -23.0934   -1.0126   -6.6276 C   0  0  0  0  0  0  0  0  0  0  0  0
  -22.9158   -2.1697   -6.9803 O   0  0  0  0  0  0  0  0  0  0  0  0
  -24.2766   -0.3393   -6.7187 O   0  0  0  0  0  0  0  0  0  0  0  0
  -25.3499   -1.1080   -7.2810 C   0  0  0  0  0  0  0  0  0  0  0  0
  -25.5307   -1.9917   -6.6579 H   0  0  0  0  0  0  0  0  0  0  0  0
  -25.0802   -1.4227   -8.2959 H   0  0  0  0  0  0  0  0  0  0  0  0
  -26.5983   -0.2311   -7.3197 C   0  0  0  0  0  0  0  0  0  0  0  0
  -26.3881    0.6727   -7.9051 H   0  0  0  0  0  0  0  0  0  0  0  0
  -26.8289    0.1157   -6.3047 H   0  0  0  0  0  0  0  0  0  0  0  0
  -27.7962   -0.9758   -7.9089 C   0  0  0  0  0  0  0  0  0  0  0  0
  -27.9994   -1.8735   -7.3124 H   0  0  0  0  0  0  0  0  0  0  0  0
  -27.5560   -1.3106   -8.9254 H   0  0  0  0  0  0  0  0  0  0  0  0
  -29.0445   -0.0915   -7.9433 C   0  0  0  0  0  0  0  0  0  0  0  0
  -28.8423    0.8093   -8.5362 H   0  0  0  0  0  0  0  0  0  0  0  0
  -29.2844    0.2476   -6.9278 H   0  0  0  0  0  0  0  0  0  0  0  0
  -30.2433   -0.8354   -8.5327 C   0  0  0  0  0  0  0  0  0  0  0  0
  -30.4621   -1.7219   -7.9271 H   0  0  0  0  0  0  0  0  0  0  0  0
  -30.0161   -1.1493   -9.5576 H   0  0  0  0  0  0  0  0  0  0  0  0
  -31.4840    0.0279   -8.5688 C   0  0  0  0  0  0  0  0  0  0  0  0
  -31.5542    1.1865   -8.1849 O   0  0  0  0  0  0  0  0  0  0  0  0
  -32.5195   -0.6857   -9.0978 O   0  0  0  0  0  0  0  0  0  0  0  0
  -33.7543    0.0404   -9.1787 C   0  0  0  0  0  0  0  0  0  0  0  0
  -33.6167    0.9246   -9.8121 H   0  0  0  0  0  0  0  0  0  0  0  0
  -34.0603    0.3523   -8.1732 H   0  0  0  0  0  0  0  0  0  0  0  0
  -34.8107   -0.8785   -9.7855 C   0  0  0  0  0  0  0  0  0  0  0  0
  -34.9024   -1.7817   -9.1693 H   0  0  0  0  0  0  0  0  0  0  0  0
  -34.4702   -1.2208  -10.7707 H   0  0  0  0  0  0  0  0  0  0  0  0
  -36.1655   -0.1815   -9.9069 C   0  0  0  0  0  0  0  0  0  0  0  0
  -36.0617    0.7159  -10.5289 H   0  0  0  0  0  0  0  0  0  0  0  0
  -36.4981    0.1489   -8.9154 H   0  0  0  0  0  0  0  0  0  0  0  0
  -37.2190   -1.1078  -10.5175 C   0  0  0  0  0  0  0  0  0  0  0  0
  -37.3214   -2.0085   -9.8993 H   0  0  0  0  0  0  0  0  0  0  0  0
  -36.8867   -1.4422  -11.5083 H   0  0  0  0  0  0  0  0  0  0  0  0
  -38.5748   -0.4116  -10.6386 C   0  0  0  0  0  0  0  0  0  0  0  0
  -38.4796    0.4742  -11.2765 H   0  0  0  0  0  0  0  0  0  0  0  0
  -38.9217   -0.1025   -9.6463 H   0  0  0  0  0  0  0  0  0  0  0  0
  -39.6239   -1.3166  -11.2434 C   0  0  0  0  0  0  0  0  0  0  0  0
  -39.4448   -2.4720  -11.6005 O   0  0  0  0  0  0  0  0  0  0  0  0
  -40.8078   -0.6445  -11.3307 O   0  0  0  0  0  0  0  0  0  0  0  0
  -41.8803   -1.4124  -11.8947 C   0  0  0  0  0  0  0  0  0  0  0  0
  -42.0598   -2.2986  -11.2747 H   0  0  0  0  0  0  0  0  0  0  0  0
  -41.6114   -1.7229  -12.9111 H   0  0  0  0  0  0  0  0  0  0  0  0
  -43.1286   -0.5359  -11.9284 C   0  0  0  0  0  0  0  0  0  0  0  0
  -42.9194    0.3705  -12.5103 H   0  0  0  0  0  0  0  0  0  0  0  0
  -43.3583   -0.1932  -10.9117 H   0  0  0  0  0  0  0  0  0  0  0  0
  -44.3261   -1.2789  -12.5192 C   0  0  0  0  0  0  0  0  0  0  0  0
  -44.5290   -2.1785  -11.9254 H   0  0  0  0  0  0  0  0  0  0  0  0
  -44.0865   -1.6104  -13.5368 H   0  0  0  0  0  0  0  0  0  0  0  0
  -45.5736   -0.3941  -12.5499 C   0  0  0  0  0  0  0  0  0  0  0  0
  -45.3718    0.5083  -13.1405 H   0  0  0  0  0  0  0  0  0  0  0  0
  -45.8131   -0.0579  -11.5333 H   0  0  0  0  0  0  0  0  0  0  0  0
  -46.7720   -1.1369  -13.1406 C   0  0  0  0  0  0  0  0  0  0  0  0
  -46.9910   -2.0243  -12.5362 H   0  0  0  0  0  0  0  0  0  0  0  0
  -46.5450   -1.4493  -14.1660 H   0  0  0  0  0  0  0  0  0  0  0  0
  -48.0119   -0.2731  -13.1753 C   0  0  0  0  0  0  0  0  0  0  0  0
  -48.0807    0.8868  -12.7954 O   0  0  0  0  0  0  0  0  0  0  0  0
  -49.0484   -0.9884  -13.6992 O   0  0  0  0  0  0  0  0  0  0  0  0
  -50.2828   -0.2625  -13.7801 C   0  0  0  0  0  0  0  0  0  0  0  0
  -50.1472    0.6178  -14.4193 H   0  0  0  0  0  0  0  0  0  0  0  0
  -50.5858    0.0555  -12.7756 H   0  0  0  0  0  0  0  0  0  0  0  0
  -51.3400   -1.1855  -14.3779 C   0  0  0  0  0  0  0  0  0  0  0  0
  -51.4302   -2.0845  -13.7553 H   0  0  0  0  0  0  0  0  0  0  0  0
  -51.0019   -1.5346  -15.3616 H   0  0  0  0  0  0  0  0  0  0  0  0
  -52.6943   -0.4891  -14.5006 C   0  0  0  0  0  0  0  0  0  0  0  0
  -52.5922    0.4035  -15.1297 H   0  0  0  0  0  0  0  0  0  0  0  0
  -53.0241   -0.1509  -13.5107 H   0  0  0  0  0  0  0  0  0  0  0  0
  -53.7492   -1.4200  -15.1008 C   0  0  0  0  0  0  0  0  0  0  0  0
  -53.8510   -2.3153  -14.4747 H   0  0  0  0  0  0  0  0  0  0  0  0
  -53.4196   -1.7630  -16.0895 H   0  0  0  0  0  0  0  0  0  0  0  0
  -55.1037   -0.7228  -15.2242 C   0  0  0  0  0  0  0  0  0  0  0  0
  -55.0083    0.1578  -15.8692 H   0  0  0  0  0  0  0  0  0  0  0  0
  -55.4482   -0.4053  -14.2337 H   0  0  0  0  0  0  0  0  0  0  0  0
  -56.1550   -1.6305  -15.8196 C   0  0  0  0  0  0  0  0  0  0  0  0
  -55.9817   -2.7919  -16.1598 O   0  0  0  0  0  0  0  0  0  0  0  0
  -57.3343   -0.9527  -15.9191 O   0  0  0  0  0  0  0  0  0  0  0  0
  -58.4098   -1.7211  -16.4756 C   0  0  0  0  0  0  0  0  0  0  0  0
  -58.5970   -2.5978  -15.8445 H   0  0  0  0  0  0  0  0  0  0  0  0
  -58.1406   -2.0468  -17.4872 H   0  0  0  0  0  0  0  0  0  0  0  0
  -59.6509   -0.8356  -16.5234 C   0  0  0  0  0  0  0  0  0  0  0  0
  -59.4336    0.0618  -17.1160 H   0  0  0  0  0  0  0  0  0  0  0  0
  -59.8807   -0.4787  -15.5116 H   0  0  0  0  0  0  0  0  0  0  0  0
  -60.8516   -1.5773  -17.1080 C   0  0  0  0  0  0  0  0  0  0  0  0
  -61.0611   -2.4692  -16.5050 H   0  0  0  0  0  0  0  0  0  0  0  0
  -60.6124   -1.9213  -18.1216 H   0  0  0  0  0  0  0  0  0  0  0  0
  -62.0932   -0.6850  -17.1500 C   0  0  0  0  0  0  0  0  0  0  0  0
  -61.8853    0.2101  -17.7495 H   0  0  0  0  0  0  0  0  0  0  0  0
  -62.3330   -0.3374  -16.1374 H   0  0  0  0  0  0  0  0  0  0  0  0
  -63.2928   -1.4284  -17.7358 C   0  0  0  0  0  0  0  0  0  0  0  0
  -63.5148   -2.3106  -17.1249 H   0  0  0  0  0  0  0  0  0  0  0  0
  -63.0655   -1.7496  -18.7585 H   0  0  0  0  0  0  0  0  0  0  0  0
  -64.5308   -0.5629  -17.7788 C   0  0  0  0  0  0  0  0  0  0  0  0
  -64.6001    0.5994  -17.4066 O   0  0  0  0  0  0  0  0  0  0  0  0
  -65.5652   -1.2822  -18.3002 O   0  0  0  0  0  0  0  0  0  0  0  0
  -66.8017   -0.5610  -18.3887 C   0  0  0  0  0  0  0  0  0  0  0  0
  -66.6682    0.3162  -19.0326 H   0  0  0  0  0  0  0  0  0  0  0  0
  -67.1096   -0.2391  -17.3870 H   0  0  0  0  0  0  0  0  0  0  0  0
  -67.8493   -1.4953  -18.9849 C   0  0  0  0  0  0  0  0  0  0  0  0
  -67.9335   -2.3919  -18.3581 H   0  0  0  0  0  0  0  0  0  0  0  0
  -67.5047   -1.8466  -19.9656 H   0  0  0  0  0  0  0  0  0  0  0  0
  -69.2097   -0.8136  -19.1164 C   0  0  0  0  0  0  0  0  0  0  0  0
  -69.1148    0.0767  -19.7498 H   0  0  0  0  0  0  0  0  0  0  0  0
  -69.5472   -0.4739  -18.1296 H   0  0  0  0  0  0  0  0  0  0  0  0
  -70.2504   -1.7609  -19.7160 C   0  0  0  0  0  0  0  0  0  0  0  0
  -70.3436   -2.6543  -19.0860 H   0  0  0  0  0  0  0  0  0  0  0  0
  -69.9131   -2.1044  -20.7019 H   0  0  0  0  0  0  0  0  0  0  0  0
  -71.6120   -1.0812  -19.8474 C   0  0  0  0  0  0  0  0  0  0  0  0
  -71.5247   -0.2024  -20.4962 H   0  0  0  0  0  0  0  0  0  0  0  0
  -71.9631   -0.7623  -18.8595 H   0  0  0  0  0  0  0  0  0  0  0  0
  -72.6526   -2.0028  -20.4412 C   0  0  0  0  0  0  0  0  0  0  0  0
  -72.4697   -3.1637  -20.7766 O   0  0  0  0  0  0  0  0  0  0  0  0
  -73.8354   -1.3341  -20.5444 O   0  0  0  0  0  0  0  0  0  0  0  0
  -74.9128   -2.1033  -21.0984 C   0  0  0  0  0  0  0  0  0  0  0  0
  -75.1054   -2.9750  -20.4626 H   0  0  0  0  0  0  0  0  0  0  0  0
  -74.6459   -2.4336  -22.1089 H   0  0  0  0  0  0  0  0  0  0  0  0
  -76.1405   -1.2016  -21.1449 C   0  0  0  0  0  0  0  0  0  0  0  0
  -75.9076   -0.3085  -21.7388 H   0  0  0  0  0  0  0  0  0  0  0  0
  -76.3570   -0.8370  -20.1327 H   0  0  0  0  0  0  0  0  0  0  0  0
  -77.3659   -1.9099  -21.7207 C   0  0  0  0  0  0  0  0  0  0  0  0
  -77.6041   -2.7912  -21.1133 H   0  0  0  0  0  0  0  0  0  0  0  0
  -77.1475   -2.2623  -22.7358 H   0  0  0  0  0  0  0  0  0  0  0  0
  -78.5655   -0.9624  -21.7499 C   0  0  0  0  0  0  0  0  0  0  0  0
  -78.3170   -0.0780  -22.3505 H   0  0  0  0  0  0  0  0  0  0  0  0
  -78.7714   -0.6021  -20.7338 H   0  0  0  0  0  0  0  0  0  0  0  0
  -79.8200   -1.6261  -22.3172 C   0  0  0  0  0  0  0  0  0  0  0  0
  -80.0952   -2.4889  -21.7010 H   0  0  0  0  0  0  0  0  0  0  0  0
  -79.6346   -1.9600  -23.3438 H   0  0  0  0  0  0  0  0  0  0  0  0
  -80.9827   -0.6600  -22.3330 C   0  0  0  0  0  0  0  0  0  0  0  0
  -80.9333    0.5082  -21.9729 O   0  0  0  0  0  0  0  0  0  0  0  0
  -82.0993   -1.2810  -22.8115 O   0  0  0  0  0  0  0  0  0  0  0  0
  -83.2492   -0.4259  -22.8565 C   0  0  0  0  0  0  0  0  0  0  0  0
  -83.0418    0.4274  -23.5134 H   0  0  0  0  0  0  0  0  0  0  0  0
  -83.4726   -0.0635  -21.8459 H   0  0  0  0  0  0  0  0  0  0  0  0
  -84.4363   -1.2170  -23.3958 C   0  0  0  0  0  0  0  0  0  0  0  0
  -84.6111   -2.0931  -22.7592 H   0  0  0  0  0  0  0  0  0  0  0  0
  -84.1923   -1.6096  -24.3906 H   0  0  0  0  0  0  0  0  0  0  0  0
  -85.6903   -0.3457  -23.4594 C   0  0  0  0  0  0  0  0  0  0  0  0
  -85.4988    0.5236  -24.1005 H   0  0  0  0  0  0  0  0  0  0  0  0
  -85.9196    0.0378  -22.4575 H   0  0  0  0  0  0  0  0  0  0  0  0
  -86.8947   -1.1183  -23.9962 C   0  0  0  0  0  0  0  0  0  0  0  0
  -87.0904   -1.9896  -23.3588 H   0  0  0  0  0  0  0  0  0  0  0  0
  -86.6708   -1.5041  -24.9986 H   0  0  0  0  0  0  0  0  0  0  0  0
  -88.1377   -0.2300  -24.0511 C   0  0  0  0  0  0  0  0  0  0  0  0
  -87.9495    0.6283  -24.7058 H   0  0  0  0  0  0  0  0  0  0  0  0
  -88.3774    0.1333  -23.0455 H   0  0  0  0  0  0  0  0  0  0  0  0
  -89.3416   -0.9712  -24.5824 C   0  0  0  0  0  0  0  0  0  0  0  0
  -90.4131   -0.1277  -24.6181 O   0  0  0  0  0  0  0  0  0  0  0  0
  -91.6159   -0.7317  -25.1113 C   0  0  0  0  0  0  0  0  0  0  0  0
  -92.7238    0.3167  -25.0910 C   0  0  0  0  0  0  0  0  0  0  0  0
  -94.0415   -0.2559  -25.6093 C   0  0  0  0  0  0  0  0  0  0  0  0
  -95.1590    0.7873  -25.5835 C   0  0  0  0  0  0  0  0  0  0  0  0
  -94.3320   -1.1182  -24.9969 H   0  0  0  0  0  0  0  0  0  0  0  0
  -93.9039   -0.6200  -26.6348 H   0  0  0  0  0  0  0  0  0  0  0  0
  -94.8716    1.6544  -26.1912 H   0  0  0  0  0  0  0  0  0  0  0  0
  -95.3003    1.1535  -24.5589 H   0  0  0  0  0  0  0  0  0  0  0  0
  -96.4703    0.2036  -26.1074 C   0  0  0  0  0  0  0  0  0  0  0  0
  -96.7710   -0.6492  -25.4889 H   0  0  0  0  0  0  0  0  0  0  0  0
  -96.3385   -0.1339  -27.1414 H   0  0  0  0  0  0  0  0  0  0  0  0
  -97.5833    1.2159  -26.0824 C   0  0  0  0  0  0  0  0  0  0  0  0
  -97.5315    2.3688  -25.6915 O   0  0  0  0  0  0  0  0  0  0  0  0
  -98.7341    0.7047  -26.5624 O   0  0  0  0  0  0  0  0  0  0  0  0
  -91.8888   -1.5779  -24.4698 H   0  0  0  0  0  0  0  0  0  0  0  0
  -91.4523   -1.0852  -26.1361 H   0  0  0  0  0  0  0  0  0  0  0  0
  -92.4194    1.1800  -25.6959 H   0  0  0  0  0  0  0  0  0  0  0  0
  -92.8481    0.6947  -24.0686 H   0  0  0  0  0  0  0  0  0  0  0  0
  -99.3715    1.4468  -26.4936 H   0  0  0  0  0  0  0  0  0  0  0  0
  -89.3585   -2.1438  -24.9276 O   0  0  0  0  0  0  0  0  0  0  0  0
    9.9972   -0.5602    2.4702 C   0  0  0  0  0  0  0  0  0  0  0  0
   11.0821    0.2909    3.0903 C   0  0  0  0  0  0  0  0  0  0  0  0
   10.7553    0.5825    4.0947 H   0  0  0  0  0  0  0  0  0  0  0  0
   11.2021    1.1910    2.4773 H   0  0  0  0  0  0  0  0  0  0  0  0
   12.4144   -0.4556    3.1785 C   0  0  0  0  0  0  0  0  0  0  0  0
   12.7271   -0.7706    2.1751 H   0  0  0  0  0  0  0  0  0  0  0  0
   12.2850   -1.3710    3.7695 H   0  0  0  0  0  0  0  0  0  0  0  0
   13.5054    0.4131    3.8079 C   0  0  0  0  0  0  0  0  0  0  0  0
   13.1920    0.7247    4.8117 H   0  0  0  0  0  0  0  0  0  0  0  0
   13.6363    1.3249    3.2125 H   0  0  0  0  0  0  0  0  0  0  0  0
   14.8365   -0.3336    3.8977 C   0  0  0  0  0  0  0  0  0  0  0  0
   15.1578   -0.6590    2.9004 H   0  0  0  0  0  0  0  0  0  0  0  0
   14.7187   -1.2503    4.4891 H   0  0  0  0  0  0  0  0  0  0  0  0
   15.9278    0.5323    4.5213 C   0  0  0  0  0  0  0  0  0  0  0  0
   15.6392    0.8256    5.5374 H   0  0  0  0  0  0  0  0  0  0  0  0
   16.0888    1.4292    3.9116 H   0  0  0  0  0  0  0  0  0  0  0  0
   17.1402   -0.2334    4.5731 O   0  0  0  0  0  0  0  0  0  0  0  0
   18.2015    0.4375    5.1074 C   0  0  0  0  0  0  0  0  0  0  0  0
   19.4169   -0.4618    5.1145 C   0  0  0  0  0  0  0  0  0  0  0  0
   19.6214   -0.7682    4.0825 H   0  0  0  0  0  0  0  0  0  0  0  0
   19.1806   -1.3497    5.7114 H   0  0  0  0  0  0  0  0  0  0  0  0
   20.6448    0.2397    5.6967 C   0  0  0  0  0  0  0  0  0  0  0  0
   20.4279    0.5747    6.7188 H   0  0  0  0  0  0  0  0  0  0  0  0
   20.8668    1.1404    5.1107 H   0  0  0  0  0  0  0  0  0  0  0  0
   21.8659   -0.6821    5.7064 C   0  0  0  0  0  0  0  0  0  0  0  0
   22.0828   -1.0141    4.6838 H   0  0  0  0  0  0  0  0  0  0  0  0
   21.6429   -1.5791    6.2969 H   0  0  0  0  0  0  0  0  0  0  0  0
   23.0940    0.0190    6.2868 C   0  0  0  0  0  0  0  0  0  0  0  0
   22.8871    0.3657    7.3070 H   0  0  0  0  0  0  0  0  0  0  0  0
   23.3276    0.9195    5.7052 H   0  0  0  0  0  0  0  0  0  0  0  0
   24.3118   -0.9004    6.3042 C   0  0  0  0  0  0  0  0  0  0  0  0
   24.5577   -1.2173    5.2839 H   0  0  0  0  0  0  0  0  0  0  0  0
   24.1078   -1.7816    6.9238 H   0  0  0  0  0  0  0  0  0  0  0  0
   25.4186   -0.1744    6.8574 O   0  0  0  0  0  0  0  0  0  0  0  0
   10.1401   -1.7045    2.0637 O   0  0  0  0  0  0  0  0  0  0  0  0
   18.1689    1.5889    5.5174 O   0  0  0  0  0  0  0  0  0  0  0  0
   26.5762   -0.8928    6.9308 C   0  0  0  0  0  0  0  0  0  0  0  0
   27.6676   -0.0321    7.5246 C   0  0  0  0  0  0  0  0  0  0  0  0
   26.7052   -2.0542    6.5708 O   0  0  0  0  0  0  0  0  0  0  0  0
   28.9982   -0.7796    7.6189 C   0  0  0  0  0  0  0  0  0  0  0  0
   27.3484    0.2826    8.5244 H   0  0  0  0  0  0  0  0  0  0  0  0
   27.7863    0.8542    6.8913 H   0  0  0  0  0  0  0  0  0  0  0  0
   29.3021   -1.1187    6.6206 H   0  0  0  0  0  0  0  0  0  0  0  0
   28.8724   -1.6803    8.2327 H   0  0  0  0  0  0  0  0  0  0  0  0
   30.0942    0.1028    8.2185 C   0  0  0  0  0  0  0  0  0  0  0  0
   29.7896    0.4373    9.2177 H   0  0  0  0  0  0  0  0  0  0  0  0
   30.2200    1.0010    7.6016 H   0  0  0  0  0  0  0  0  0  0  0  0
   31.4255   -0.6418    8.3132 C   0  0  0  0  0  0  0  0  0  0  0  0
   31.7404   -0.9862    7.3202 H   0  0  0  0  0  0  0  0  0  0  0  0
   31.3128   -1.5467    8.9234 H   0  0  0  0  0  0  0  0  0  0  0  0
   32.5180    0.2382    8.9123 C   0  0  0  0  0  0  0  0  0  0  0  0
   33.7322   -0.5228    8.9709 O   0  0  0  0  0  0  0  0  0  0  0  0
   34.7897    0.1610    9.4961 C   0  0  0  0  0  0  0  0  0  0  0  0
   36.0110   -0.7290    9.5113 C   0  0  0  0  0  0  0  0  0  0  0  0
   36.2251   -1.0343    8.4811 H   0  0  0  0  0  0  0  0  0  0  0  0
   35.7796   -1.6183   10.1081 H   0  0  0  0  0  0  0  0  0  0  0  0
   37.2253   -0.0128   10.1014 C   0  0  0  0  0  0  0  0  0  0  0  0
   36.9978    0.3165   11.1231 H   0  0  0  0  0  0  0  0  0  0  0  0
   37.4375    0.8927    9.5192 H   0  0  0  0  0  0  0  0  0  0  0  0
   38.4600   -0.9149   10.1157 C   0  0  0  0  0  0  0  0  0  0  0  0
   38.6907   -1.2392    9.0936 H   0  0  0  0  0  0  0  0  0  0  0  0
   38.2495   -1.8177   10.7018 H   0  0  0  0  0  0  0  0  0  0  0  0
   39.6682   -0.1892   10.7083 C   0  0  0  0  0  0  0  0  0  0  0  0
   39.4435    0.1336   11.7316 H   0  0  0  0  0  0  0  0  0  0  0  0
   39.8841    0.7129   10.1239 H   0  0  0  0  0  0  0  0  0  0  0  0
   40.9016   -1.0779   10.7261 C   0  0  0  0  0  0  0  0  0  0  0  0
   34.7491    1.3173    9.8916 O   0  0  0  0  0  0  0  0  0  0  0  0
   32.2346    0.5508    9.9242 H   0  0  0  0  0  0  0  0  0  0  0  0
   32.6730    1.1234    8.2842 H   0  0  0  0  0  0  0  0  0  0  0  0
   41.1739   -1.3917    9.7134 H   0  0  0  0  0  0  0  0  0  0  0  0
   40.7306   -1.9746   11.3302 H   0  0  0  0  0  0  0  0  0  0  0  0
   41.7517   -0.5372   11.1541 H   0  0  0  0  0  0  0  0  0  0  0  0
  1  2  1  0  0  0  0
  2  3  1  0  0  0  0
  2 15  2  0  0  0  0
  3  4  1  0  0  0  0
  3 16  1  0  0  0  0
  3 17  1  0  0  0  0
  4  5  1  0  0  0  0
  4 18  1  0  0  0  0
  4 19  1  0  0  0  0
  5  6  1  0  0  0  0
  5 20  1  0  0  0  0
  5 21  1  0  0  0  0
  6  7  1  0  0  0  0
  6 22  1  0  0  0  0
  6 23  1  0  0  0  0
  7  8  1  0  0  0  0
  7 24  1  0  0  0  0
  7 25  1  0  0  0  0
  8  9  1  0  0  0  0
  9 10  1  0  0  0  0
  9 26  2  0  0  0  0
 10 11  1  0  0  0  0
 10 27  1  0  0  0  0
 10 28  1  0  0  0  0
 11 12  1  0  0  0  0
 11 29  1  0  0  0  0
 11 30  1  0  0  0  0
 12 13  1  0  0  0  0
 12 31  1  0  0  0  0
 12 32  1  0  0  0  0
 13 14  1  0  0  0  0
 13 33  1  0  0  0  0
 13 34  1  0  0  0  0
 14 35  1  0  0  0  0
 14 36  1  0  0  0  0
 14 37  1  0  0  0  0
 38  1  1  0  0  0  0
 39 38  1  0  0  0  0
 40 38  1  0  0  0  0
 41 38  1  0  0  0  0
 42 41  1  0  0  0  0
 43 41  1  0  0  0  0
 44 41  1  0  0  0  0
 45 44  1  0  0  0  0
 46 44  1  0  0  0  0
 47 44  1  0  0  0  0
 48 47  1  0  0  0  0
 49 47  1  0  0  0  0
 50 47  1  0  0  0  0
 51 50  1  0  0  0  0
 52 50  1  0  0  0  0
 53 50  1  0  0  0  0
 54 53  2  0  0  0  0
 55 53  1  0  0  0  0
 56 55  1  0  0  0  0
 57 56  1  0  0  0  0
 58 56  1  0  0  0  0
 59 56  1  0  0  0  0
 60 59  1  0  0  0  0
 61 59  1  0  0  0  0
 62 59  1  0  0  0  0
 63 62  1  0  0  0  0
 64 62  1  0  0  0  0
 65 62  1  0  0  0  0
 66 65  1  0  0  0  0
 67 65  1  0  0  0  0
 68 65  1  0  0  0  0
 69 68  1  0  0  0  0
 70 68  1  0  0  0  0
 71 68  1  0  0  0  0
 72 71  2  0  0  0  0
 73 71  1  0  0  0  0
 74 73  1  0  0  0  0
 75 74  1  0  0  0  0
 76 74  1  0  0  0  0
 77 74  1  0  0  0  0
 78 77  1  0  0  0  0
 79 77  1  0  0  0  0
 80 77  1  0  0  0  0
 81 80  1  0  0  0  0
 82 80  1  0  0  0  0
 83 80  1  0  0  0  0
 84 83  1  0  0  0  0
 85 83  1  0  0  0  0
 86 83  1  0  0  0  0
 87 86  1  0  0  0  0
 88 86  1  0  0  0  0
 89 86  1  0  0  0  0
 90 89  2  0  0  0  0
 91 89  1  0  0  0  0
 92 91  1  0  0  0  0
 93 92  1  0  0  0  0
 94 92  1  0  0  0  0
 95 92  1  0  0  0  0
 96 95  1  0  0  0  0
 97 95  1  0  0  0  0
 98 95  1  0  0  0  0
 99 98  1  0  0  0  0
100 98  1  0  0  0  0
101 98  1  0  0  0  0
102101  1  0  0  0  0
103101  1  0  0  0  0
104101  1  0  0  0  0
105104  1  0  0  0  0
106104  1  0  0  0  0
107104  1  0  0  0  0
108107  2  0  0  0  0
109107  1  0  0  0  0
110109  1  0  0  0  0
111110  1  0  0  0  0
112110  1  0  0  0  0
113110  1  0  0  0  0
114113  1  0  0  0  0
115113  1  0  0  0  0
116113  1  0  0  0  0
117116  1  0  0  0  0
118116  1  0  0  0  0
119116  1  0  0  0  0
120119  1  0  0  0  0
121119  1  0  0  0  0
122119  1  0  0  0  0
123122  1  0  0  0  0
124122  1  0  0  0  0
125122  1  0  0  0  0
126125  2  0  0  0  0
127125  1  0  0  0  0
128127  1  0  0  0  0
129128  1  0  0  0  0
130128  1  0  0  0  0
131128  1  0  0  0  0
132131  1  0  0  0  0
133131  1  0  0  0  0
134131  1  0  0  0  0
135134  1  0  0  0  0
136134  1  0  0  0  0
137134  1  0  0  0  0
138137  1  0  0  0  0
139137  1  0  0  0  0
140137  1  0  0  0  0
141140  1  0  0  0  0
142140  1  0  0  0  0
143140  1  0  0  0  0
144143  2  0  0  0  0
145143  1  0  0  0  0
146145  1  0  0  0  0
147146  1  0  0  0  0
148146  1  0  0  0  0
149146  1  0  0  0  0
150149  1  0  0  0  0
151149  1  0  0  0  0
152149  1  0  0  0  0
153152  1  0  0  0  0
154152  1  0  0  0  0
155152  1  0  0  0  0
156155  1  0  0  0  0
157155  1  0  0  0  0
158155  1  0  0  0  0
159158  1  0  0  0  0
160158  1  0  0  0  0
161158  1  0  0  0  0
162161  2  0  0  0  0
163161  1  0  0  0  0
164163  1  0  0  0  0
165164  1  0  0  0  0
166164  1  0  0  0  0
167164  1  0  0  0  0
168167  1  0  0  0  0
169167  1  0  0  0  0
170167  1  0  0  0  0
171170  1  0  0  0  0
172170  1  0  0  0  0
173170  1  0  0  0  0
174173  1  0  0  0  0
175173  1  0  0  0  0
176173  1  0  0  0  0
177176  1  0  0  0  0
178176  1  0  0  0  0
179176  1  0  0  0  0
180179  2  0  0  0  0
181179  1  0  0  0  0
182181  1  0  0  0  0
183182  1  0  0  0  0
184182  1  0  0  0  0
185182  1  0  0  0  0
186185  1  0  0  0  0
187185  1  0  0  0  0
188185  1  0  0  0  0
189188  1  0  0  0  0
190188  1  0  0  0  0
191188  1  0  0  0  0
192191  1  0  0  0  0
193191  1  0  0  0  0
194191  1  0  0  0  0
195194  1  0  0  0  0
196194  1  0  0  0  0
197194  1  0  0  0  0
198197  2  0  0  0  0
199197  1  0  0  0  0
200199  1  0  0  0  0
201200  1  0  0  0  0
202200  1  0  0  0  0
203200  1  0  0  0  0
204203  1  0  0  0  0
205203  1  0  0  0  0
206203  1  0  0  0  0
207206  1  0  0  0  0
208206  1  0  0  0  0
209206  1  0  0  0  0
210209  1  0  0  0  0
211209  1  0  0  0  0
212209  1  0  0  0  0
213212  1  0  0  0  0
214212  1  0  0  0  0
215212  1  0  0  0  0
216215  1  0  0  0  0
217216  1  0  0  0  0
218217  1  0  0  0  0
219218  1  0  0  0  0
220219  1  0  0  0  0
221219  1  0  0  0  0
222219  1  0  0  0  0
223220  1  0  0  0  0
224220  1  0  0  0  0
225220  1  0  0  0  0
226225  1  0  0  0  0
227225  1  0  0  0  0
228225  1  0  0  0  0
229228  2  0  0  0  0
230228  1  0  0  0  0
231217  1  0  0  0  0
232217  1  0  0  0  0
233218  1  0  0  0  0
234218  1  0  0  0  0
235230  1  0  0  0  0
236215  2  0  0  0  0
237 35  1  0  0  0  0
238237  1  0  0  0  0
239238  1  0  0  0  0
240238  1  0  0  0  0
241238  1  0  0  0  0
242241  1  0  0  0  0
243241  1  0  0  0  0
244241  1  0  0  0  0
245244  1  0  0  0  0
246244  1  0  0  0  0
247244  1  0  0  0  0
248247  1  0  0  0  0
249247  1  0  0  0  0
250247  1  0  0  0  0
251250  1  0  0  0  0
252250  1  0  0  0  0
253250  1  0  0  0  0
254253  1  0  0  0  0
255254  1  0  0  0  0
256255  1  0  0  0  0
257255  1  0  0  0  0
258255  1  0  0  0  0
259258  1  0  0  0  0
260258  1  0  0  0  0
261258  1  0  0  0  0
262261  1  0  0  0  0
263261  1  0  0  0  0
264261  1  0  0  0  0
265264  1  0  0  0  0
266264  1  0  0  0  0
267264  1  0  0  0  0
268267  1  0  0  0  0
269267  1  0  0  0  0
270267  1  0  0  0  0
271237  2  0  0  0  0
272254  2  0  0  0  0
273270  1  0  0  0  0
274273  1  0  0  0  0
275273  2  0  0  0  0
276274  1  0  0  0  0
277274  1  0  0  0  0
278274  1  0  0  0  0
279276  1  0  0  0  0
280276  1  0  0  0  0
281276  1  0  0  0  0
282281  1  0  0  0  0
283281  1  0  0  0  0
284281  1  0  0  0  0
285284  1  0  0  0  0
286284  1  0  0  0  0
287284  1  0  0  0  0
288287  1  0  0  0  0
289288  1  0  0  0  0
290289  1  0  0  0  0
291290  1  0  0  0  0
292290  1  0  0  0  0
293290  1  0  0  0  0
294293  1  0  0  0  0
295293  1  0  0  0  0
296293  1  0  0  0  0
297296  1  0  0  0  0
298296  1  0  0  0  0
299296  1  0  0  0  0
300299  1  0  0  0  0
301299  1  0  0  0  0
302299  1  0  0  0  0
303289  2  0  0  0  0
304287  1  0  0  0  0
305287  1  0  0  0  0
306302  1  0  0  0  0
307302  1  0  0  0  0
308302  1  0  0  0  0
M  END
