file:/home/renata/workspace/cosmo/jcosmo2/molfiles/POLY_PVC13.mol
__Jmol-12_05231315073D 1   1.00000     0.00000     0
Jmol version 12.3.28  2012-05-30 15:29 EXTRACT: ({0:91})
 92 91  0  0  0  0              1 V2000
  -9.62325   3.87493 -10.16494 Cl  0  0  0  0  0  0
  -8.99742   2.56878  -9.09112 C   0  0  0  0  0  0
  -8.36807   3.19198  -7.84357 C   0  0  0  0  0  0
  -7.83698   2.08356  -6.93228 C   0  0  0  0  0  0
  -7.09824   2.70800  -5.74687 C   0  0  0  0  0  0
  -6.46102   1.60207  -4.90319 C   0  0  0  0  0  0
  -5.61957   2.23025  -3.79044 C   0  0  0  0  0  0
  -4.88340   1.12934  -3.02432 C   0  0  0  0  0  0
  -3.94701   1.76367  -1.99401 C   0  0  0  0  0  0
  -3.12017   0.67005  -1.31483 C   0  0  0  0  0  0
  -2.09758   1.31291  -0.37577 C   0  0  0  0  0  0
  -1.18920   0.22892   0.20812 C   0  0  0  0  0  0
  -0.08990   0.88249   1.04787 C   0  0  0  0  0  0
   0.88991  -0.18961   1.52885 C   0  0  0  0  0  0
   2.05545   0.47686   2.26246 C   0  0  0  0  0  0
   3.09615  -0.58128   2.63412 C   0  0  0  0  0  0
   4.31688   0.10020   3.25564 C   0  0  0  0  0  0
   5.40707  -0.94219   3.51268 C   0  0  0  0  0  0
   6.67142  -0.24397   4.01745 C   0  0  0  0  0  0
   7.79918  -1.26850   4.15572 C   0  0  0  0  0  0
   9.09512  -0.55179   4.54001 C   0  0  0  0  0  0
  10.24835  -1.55708   4.55657 C   0  0  0  0  0  0
  11.54430  -0.84036   4.94086 C   0  0  0  0  0  0
  12.69753  -1.84565   4.95742 C   0  0  0  0  0  0
  13.99346  -1.12893   5.34171 C   0  0  0  0  0  0
  15.14669  -2.13422   5.35827 C   0  0  0  0  0  0
  16.44263  -1.41751   5.74256 C   0  0  0  0  0  0
   7.37141  -2.46417   5.43565 Cl  0  0  0  0  0  0
   4.83377  -2.11796   4.75355 Cl  0  0  0  0  0  0
   2.38236  -1.73508   3.82154 Cl  0  0  0  0  0  0
   0.04203  -1.31964   2.64912 Cl  0  0  0  0  0  0
  -2.16346  -0.87567   1.24803 Cl  0  0  0  0  0  0
  -4.21187  -0.40769  -0.36745 Cl  0  0  0  0  0  0
  -6.08224   0.07947  -2.18091 Cl  0  0  0  0  0  0
  -7.75579   0.58100  -4.17399 Cl  0  0  0  0  0  0
  -9.21546   1.09173  -6.32640 Cl  0  0  0  0  0  0
  -9.81909   1.91607  -8.79611 H   0  0  0  0  0  0
  -8.24592   1.98781  -9.62571 H   0  0  0  0  0  0
  -7.54638   3.84464  -8.13844 H   0  0  0  0  0  0
  -9.11958   3.77296  -7.30897 H   0  0  0  0  0  0
  -7.15179   1.44861  -7.49391 H   0  0  0  0  0  0
  -6.32091   3.37760  -6.11512 H   0  0  0  0  0  0
  -7.80311   3.27111  -5.13531 H   0  0  0  0  0  0
  -5.82385   0.98394  -5.53565 H   0  0  0  0  0  0
  -4.89399   2.91658  -4.22702 H   0  0  0  0  0  0
  -6.27010   2.77588  -3.10693 H   0  0  0  0  0  0
  -4.30138   0.52773  -3.72257 H   0  0  0  0  0  0
  -3.27984   2.46619  -2.49337 H   0  0  0  0  0  0
  -4.53607   2.29211  -1.24452 H   0  0  0  0  0  0
  -2.59974   0.08448  -2.07270 H   0  0  0  0  0  0
  -1.49502   2.03120  -0.93173 H   0  0  0  0  0  0
  -2.61864   1.82476   0.43326 H   0  0  0  0  0  0
  -0.73623  -0.34117  -0.60303 H   0  0  0  0  0  0
   0.44243   1.61585   0.44221 H   0  0  0  0  0  0
  -0.53728   1.37858   1.90929 H   0  0  0  0  0  0
   1.27019  -0.74514   0.67160 H   0  0  0  0  0  0
   2.51289   1.22440   1.61430 H   0  0  0  0  0  0
   1.68698   0.95804   3.16850 H   0  0  0  0  0  0
   3.39940  -1.12311   1.73823 H   0  0  0  0  0  0
   4.69526   0.86080   2.57284 H   0  0  0  0  0  0
   4.03153   0.56743   4.19813 H   0  0  0  0  0  0
   5.62944  -1.47135   2.58613 H   0  0  0  0  0  0
   6.96752   0.52883   3.30799 H   0  0  0  0  0  0
   6.47261   0.21076   4.98792 H   0  0  0  0  0  0
   7.93810  -1.78631   3.20661 H   0  0  0  0  0  0
   9.30654   0.23177   3.81230 H   0  0  0  0  0  0
   8.98541  -0.10839   5.52972 H   0  0  0  0  0  0
   9.95743  -2.63531   5.55796 Cl  0  0  0  0  0  0
  10.35815  -2.00049   3.56691 H   0  0  0  0  0  0
  11.75570  -0.05680   4.21315 H   0  0  0  0  0  0
  11.43458  -0.39696   5.93057 H   0  0  0  0  0  0
  12.40661  -2.92389   5.95881 Cl  0  0  0  0  0  0
  12.80732  -2.28906   3.96776 H   0  0  0  0  0  0
  14.20487  -0.34538   4.61400 H   0  0  0  0  0  0
  13.88375  -0.68554   6.33142 H   0  0  0  0  0  0
  14.85577  -3.21246   6.35966 Cl  0  0  0  0  0  0
  15.25649  -2.57764   4.36861 H   0  0  0  0  0  0
  16.65405  -0.63395   5.01485 H   0  0  0  0  0  0
  16.33292  -0.97410   6.73227 H   0  0  0  0  0  0
  17.57329  -2.40309   5.75879 C   0  0  0  0  0  0
  17.68410  -2.85054   4.76003 H   0  0  0  0  0  0
  17.28245  -3.48132   6.76020 Cl  0  0  0  0  0  0
  18.84383  -1.70039   6.13555 C   0  0  0  0  0  0
  18.73314  -1.25295   7.13432 H   0  0  0  0  0  0
  19.05723  -0.90969   5.40120 H   0  0  0  0  0  0
  19.97449  -2.68596   6.15178 C   0  0  0  0  0  0
  20.08529  -3.13342   5.15302 H   0  0  0  0  0  0
  19.68365  -3.76420   7.15319 Cl  0  0  0  0  0  0
  21.24503  -1.98327   6.52854 C   0  0  0  0  0  0
  21.13433  -1.53583   7.52731 H   0  0  0  0  0  0
  21.45842  -1.19257   5.79419 H   0  0  0  0  0  0
  22.07417  -2.70602   6.54044 H   0  0  0  0  0  0
  1  2  1  0  0  0
  2  3  1  0  0  0
  3  4  1  0  0  0
  4  5  1  0  0  0
  5  6  1  0  0  0
  6  7  1  0  0  0
  7  8  1  0  0  0
  8  9  1  0  0  0
  9 10  1  0  0  0
 10 11  1  0  0  0
 11 12  1  0  0  0
 12 13  1  0  0  0
 13 14  1  0  0  0
 14 15  1  0  0  0
 15 16  1  0  0  0
 16 17  1  0  0  0
 17 18  1  0  0  0
 18 19  1  0  0  0
 19 20  1  0  0  0
 20 21  1  0  0  0
 21 22  1  0  0  0
 22 23  1  0  0  0
 23 24  1  0  0  0
 24 25  1  0  0  0
 25 26  1  0  0  0
 26 27  1  0  0  0
 20 28  1  0  0  0
 18 29  1  0  0  0
 16 30  1  0  0  0
 14 31  1  0  0  0
 12 32  1  0  0  0
 10 33  1  0  0  0
  8 34  1  0  0  0
  6 35  1  0  0  0
  4 36  1  0  0  0
  2 37  1  0  0  0
  2 38  1  0  0  0
  3 39  1  0  0  0
  3 40  1  0  0  0
  4 41  1  0  0  0
  5 42  1  0  0  0
  5 43  1  0  0  0
  6 44  1  0  0  0
  7 45  1  0  0  0
  7 46  1  0  0  0
  8 47  1  0  0  0
  9 48  1  0  0  0
  9 49  1  0  0  0
 10 50  1  0  0  0
 11 51  1  0  0  0
 11 52  1  0  0  0
 12 53  1  0  0  0
 13 54  1  0  0  0
 13 55  1  0  0  0
 14 56  1  0  0  0
 15 57  1  0  0  0
 15 58  1  0  0  0
 16 59  1  0  0  0
 17 60  1  0  0  0
 17 61  1  0  0  0
 18 62  1  0  0  0
 19 63  1  0  0  0
 19 64  1  0  0  0
 20 65  1  0  0  0
 21 66  1  0  0  0
 21 67  1  0  0  0
 22 68  1  0  0  0
 22 69  1  0  0  0
 23 70  1  0  0  0
 23 71  1  0  0  0
 24 72  1  0  0  0
 24 73  1  0  0  0
 25 74  1  0  0  0
 25 75  1  0  0  0
 26 76  1  0  0  0
 26 77  1  0  0  0
 27 78  1  0  0  0
 27 79  1  0  0  0
 27 80  1  0  0  0
 81 80  1  0  0  0
 82 80  1  0  0  0
 83 80  1  0  0  0
 84 83  1  0  0  0
 85 83  1  0  0  0
 86 83  1  0  0  0
 87 86  1  0  0  0
 88 86  1  0  0  0
 89 86  1  0  0  0
 90 89  1  0  0  0
 91 89  1  0  0  0
 92 89  1  0  0  0
M  END
