
 OpenBabel06181218053D

200199  0  0  0  0  0  0  0  0999 V2000
    0.8054    1.1371   -0.3603 C   0  0  0  0  0  0  0  0  0  0  0  0
   -0.4820    0.4202   -0.7883 C   0  0  0  0  0  0  0  0  0  0  0  0
   -1.1549   -0.3629    0.3445 C   0  0  0  0  0  0  0  0  0  0  0  0
   -2.4986   -0.9988   -0.0635 C   0  0  0  0  0  0  0  0  0  0  0  0
    0.5279    1.8126    0.4593 H   0  0  0  0  0  0  0  0  0  0  0  0
    1.9912    0.2395    0.0836 C   0  0  0  0  0  0  0  0  0  0  0  0
    1.1328    1.7875   -1.1815 H   0  0  0  0  0  0  0  0  0  0  0  0
   -1.1858    1.1821   -1.1474 H   0  0  0  0  0  0  0  0  0  0  0  0
   -0.2864   -0.2315   -1.6383 H   0  0  0  0  0  0  0  0  0  0  0  0
   -0.4887   -1.1500    0.7113 H   0  0  0  0  0  0  0  0  0  0  0  0
   -1.3266    0.3185    1.1878 H   0  0  0  0  0  0  0  0  0  0  0  0
   -3.1787   -0.2045   -0.3958 H   0  0  0  0  0  0  0  0  0  0  0  0
   -2.3480   -2.0087   -1.2033 C   0  0  0  0  0  0  0  0  0  0  0  0
   -3.1324   -1.6854    1.1491 C   0  0  0  0  0  0  0  0  0  0  0  0
   -3.2878   -0.9713    1.9646 H   0  0  0  0  0  0  0  0  0  0  0  0
   -2.4968   -2.4954    1.5235 H   0  0  0  0  0  0  0  0  0  0  0  0
   -4.1070   -2.1125    0.8899 H   0  0  0  0  0  0  0  0  0  0  0  0
   -1.6017   -2.7728   -0.9615 H   0  0  0  0  0  0  0  0  0  0  0  0
   -2.0457   -1.5181   -2.1335 H   0  0  0  0  0  0  0  0  0  0  0  0
   -3.2982   -2.5158   -1.4026 H   0  0  0  0  0  0  0  0  0  0  0  0
    2.8416   -0.2658   -1.1132 C   0  0  0  0  0  0  0  0  0  0  0  0
    1.6106   -0.6154    0.6380 H   0  0  0  0  0  0  0  0  0  0  0  0
    2.8982    1.0655    1.0472 C   0  0  0  0  0  0  0  0  0  0  0  0
    2.2759    1.6637    1.7248 H   0  0  0  0  0  0  0  0  0  0  0  0
    3.4488    1.7927    0.4359 H   0  0  0  0  0  0  0  0  0  0  0  0
    3.8870    0.2279    1.9107 C   0  0  0  0  0  0  0  0  0  0  0  0
    3.0965    0.5931   -1.7490 H   0  0  0  0  0  0  0  0  0  0  0  0
    2.2527   -1.3775   -2.0040 C   0  0  0  0  0  0  0  0  0  0  0  0
    3.7981   -0.6376   -0.7346 H   0  0  0  0  0  0  0  0  0  0  0  0
    1.3724   -0.9995   -2.5287 H   0  0  0  0  0  0  0  0  0  0  0  0
    1.8640   -2.6296   -1.2183 C   0  0  0  0  0  0  0  0  0  0  0  0
    3.2728   -1.7610   -3.0835 C   0  0  0  0  0  0  0  0  0  0  0  0
    1.0580   -2.4290   -0.5092 H   0  0  0  0  0  0  0  0  0  0  0  0
    2.7185   -3.0283   -0.6615 H   0  0  0  0  0  0  0  0  0  0  0  0
    1.5074   -3.4158   -1.8926 H   0  0  0  0  0  0  0  0  0  0  0  0
    4.1898   -2.1641   -2.6398 H   0  0  0  0  0  0  0  0  0  0  0  0
    3.5424   -0.8909   -3.6911 H   0  0  0  0  0  0  0  0  0  0  0  0
    2.8600   -2.5216   -3.7551 H   0  0  0  0  0  0  0  0  0  0  0  0
    4.1313   -0.6991    1.3929 H   0  0  0  0  0  0  0  0  0  0  0  0
    3.2797   -0.1130    3.2990 C   0  0  0  0  0  0  0  0  0  0  0  0
    5.2089    1.0300    2.1066 C   0  0  0  0  0  0  0  0  0  0  0  0
    4.9935    1.8631    2.7884 H   0  0  0  0  0  0  0  0  0  0  0  0
    5.5005    1.4944    1.1560 H   0  0  0  0  0  0  0  0  0  0  0  0
    6.4136    0.1945    2.6372 C   0  0  0  0  0  0  0  0  0  0  0  0
    2.1187   -1.1246    3.3293 C   0  0  0  0  0  0  0  0  0  0  0  0
    2.9482    0.8199    3.7753 H   0  0  0  0  0  0  0  0  0  0  0  0
    4.0651   -0.5069    3.9482 H   0  0  0  0  0  0  0  0  0  0  0  0
    2.5277   -2.4923    2.7799 C   0  0  0  0  0  0  0  0  0  0  0  0
    1.2792   -0.7372    2.7443 H   0  0  0  0  0  0  0  0  0  0  0  0
    1.6208   -1.2913    4.7696 C   0  0  0  0  0  0  0  0  0  0  0  0
    3.3779   -2.9036    3.3348 H   0  0  0  0  0  0  0  0  0  0  0  0
    2.8095   -2.4368    1.7261 H   0  0  0  0  0  0  0  0  0  0  0  0
    1.6994   -3.2049    2.8557 H   0  0  0  0  0  0  0  0  0  0  0  0
    1.2818   -0.3334    5.1775 H   0  0  0  0  0  0  0  0  0  0  0  0
    2.4116   -1.6777    5.4221 H   0  0  0  0  0  0  0  0  0  0  0  0
    0.7773   -1.9887    4.8110 H   0  0  0  0  0  0  0  0  0  0  0  0
    7.3363   -0.2638    1.4766 C   0  0  0  0  0  0  0  0  0  0  0  0
    6.0459   -0.6871    3.1619 H   0  0  0  0  0  0  0  0  0  0  0  0
    7.2389    1.0403    3.6536 C   0  0  0  0  0  0  0  0  0  0  0  0
    6.5542    1.5655    4.3316 H   0  0  0  0  0  0  0  0  0  0  0  0
    7.7582    1.8257    3.0893 H   0  0  0  0  0  0  0  0  0  0  0  0
    8.2576    0.2246    4.5099 C   0  0  0  0  0  0  0  0  0  0  0  0
    7.6327    0.6194    0.8941 H   0  0  0  0  0  0  0  0  0  0  0  0
    6.7712   -1.3267    0.5176 C   0  0  0  0  0  0  0  0  0  0  0  0
    8.2642   -0.6650    1.8886 H   0  0  0  0  0  0  0  0  0  0  0  0
    5.8728   -0.9359    0.0349 H   0  0  0  0  0  0  0  0  0  0  0  0
    6.4263   -2.6343    1.2326 C   0  0  0  0  0  0  0  0  0  0  0  0
    7.7906   -1.6117   -0.5909 C   0  0  0  0  0  0  0  0  0  0  0  0
    5.6252   -2.4977    1.9634 H   0  0  0  0  0  0  0  0  0  0  0  0
    7.2978   -3.0393    1.7583 H   0  0  0  0  0  0  0  0  0  0  0  0
    6.0837   -3.3892    0.5167 H   0  0  0  0  0  0  0  0  0  0  0  0
    8.7249   -2.0096   -0.1798 H   0  0  0  0  0  0  0  0  0  0  0  0
    8.0263   -0.6983   -1.1472 H   0  0  0  0  0  0  0  0  0  0  0  0
    7.3955   -2.3433   -1.3038 H   0  0  0  0  0  0  0  0  0  0  0  0
    8.4982   -0.7092    4.0019 H   0  0  0  0  0  0  0  0  0  0  0  0
    7.6787   -0.1076    5.9110 C   0  0  0  0  0  0  0  0  0  0  0  0
    9.5841    1.0268    4.6722 C   0  0  0  0  0  0  0  0  0  0  0  0
    9.3823    1.8741    5.3402 H   0  0  0  0  0  0  0  0  0  0  0  0
    9.8626    1.4688    3.7071 H   0  0  0  0  0  0  0  0  0  0  0  0
   10.7922    0.1927    5.2049 C   0  0  0  0  0  0  0  0  0  0  0  0
    6.5171   -1.1160    5.9578 C   0  0  0  0  0  0  0  0  0  0  0  0
    7.3577    0.8283    6.3886 H   0  0  0  0  0  0  0  0  0  0  0  0
    8.4723   -0.5026    6.5478 H   0  0  0  0  0  0  0  0  0  0  0  0
    6.9114   -2.4892    5.4110 C   0  0  0  0  0  0  0  0  0  0  0  0
    5.6815   -0.7265    5.3740 H   0  0  0  0  0  0  0  0  0  0  0  0
    6.0245   -1.2692    7.4007 C   0  0  0  0  0  0  0  0  0  0  0  0
    5.6959   -0.3056    7.8041 H   0  0  0  0  0  0  0  0  0  0  0  0
    6.8145   -1.6589    8.0520 H   0  0  0  0  0  0  0  0  0  0  0  0
    5.1742   -1.9579    7.4498 H   0  0  0  0  0  0  0  0  0  0  0  0
    7.7694   -2.8998    5.9541 H   0  0  0  0  0  0  0  0  0  0  0  0
    7.1736   -2.4439    4.3510 H   0  0  0  0  0  0  0  0  0  0  0  0
    6.0812   -3.1974    5.5068 H   0  0  0  0  0  0  0  0  0  0  0  0
   11.7212   -0.2598    4.0472 C   0  0  0  0  0  0  0  0  0  0  0  0
   10.4250   -0.6935    5.7221 H   0  0  0  0  0  0  0  0  0  0  0  0
   11.6110    1.0310    6.2332 C   0  0  0  0  0  0  0  0  0  0  0  0
   10.9218    1.5366    6.9215 H   0  0  0  0  0  0  0  0  0  0  0  0
   12.1190    1.8314    5.6798 H   0  0  0  0  0  0  0  0  0  0  0  0
   12.6440    0.2137    7.0731 C   0  0  0  0  0  0  0  0  0  0  0  0
   12.8872   -0.7133    6.5543 H   0  0  0  0  0  0  0  0  0  0  0  0
   12.0832   -0.1422    8.4761 C   0  0  0  0  0  0  0  0  0  0  0  0
   13.9656    1.0248    7.2313 C   0  0  0  0  0  0  0  0  0  0  0  0
   13.7618    1.8649    7.9080 H   0  0  0  0  0  0  0  0  0  0  0  0
   14.2326    1.4774    6.2680 H   0  0  0  0  0  0  0  0  0  0  0  0
   15.1849    0.1978    7.7478 C   0  0  0  0  0  0  0  0  0  0  0  0
   12.0240    0.6268    3.4734 H   0  0  0  0  0  0  0  0  0  0  0  0
   11.1569   -1.3135    3.0782 C   0  0  0  0  0  0  0  0  0  0  0  0
   12.6446   -0.6688    4.4603 H   0  0  0  0  0  0  0  0  0  0  0  0
   10.2639   -0.9123    2.5970 H   0  0  0  0  0  0  0  0  0  0  0  0
   10.8000   -2.6256    3.7789 C   0  0  0  0  0  0  0  0  0  0  0  0
   12.1778   -1.5947    1.9705 C   0  0  0  0  0  0  0  0  0  0  0  0
   10.0002   -2.4909    4.5113 H   0  0  0  0  0  0  0  0  0  0  0  0
   11.6677   -3.0449    4.2993 H   0  0  0  0  0  0  0  0  0  0  0  0
   10.4498   -3.3688    3.0543 H   0  0  0  0  0  0  0  0  0  0  0  0
   13.1073   -2.0046    2.3806 H   0  0  0  0  0  0  0  0  0  0  0  0
   12.4226   -0.6775    1.4246 H   0  0  0  0  0  0  0  0  0  0  0  0
   11.7790   -2.3155    1.2485 H   0  0  0  0  0  0  0  0  0  0  0  0
   10.9045   -1.1304    8.5179 C   0  0  0  0  0  0  0  0  0  0  0  0
   11.7864    0.7879    8.9800 H   0  0  0  0  0  0  0  0  0  0  0  0
   12.8803   -0.5680    9.0893 H   0  0  0  0  0  0  0  0  0  0  0  0
   11.2685   -2.5007    7.9438 C   0  0  0  0  0  0  0  0  0  0  0  0
   10.0716   -0.7151    7.9490 H   0  0  0  0  0  0  0  0  0  0  0  0
   10.4203   -1.2993    9.9617 C   0  0  0  0  0  0  0  0  0  0  0  0
   10.1134   -0.3368   10.3844 H   0  0  0  0  0  0  0  0  0  0  0  0
   11.2074   -1.7155   10.5997 H   0  0  0  0  0  0  0  0  0  0  0  0
    9.5570   -1.9721   10.0053 H   0  0  0  0  0  0  0  0  0  0  0  0
   12.1132   -2.9436    8.4822 H   0  0  0  0  0  0  0  0  0  0  0  0
   11.5382   -2.4403    6.8866 H   0  0  0  0  0  0  0  0  0  0  0  0
   10.4205   -3.1899    8.0208 H   0  0  0  0  0  0  0  0  0  0  0  0
   16.1091   -0.2411    6.5813 C   0  0  0  0  0  0  0  0  0  0  0  0
   14.8300   -0.6921    8.2674 H   0  0  0  0  0  0  0  0  0  0  0  0
   16.0071    1.0358    8.7705 C   0  0  0  0  0  0  0  0  0  0  0  0
   15.3215    1.5386    9.4643 H   0  0  0  0  0  0  0  0  0  0  0  0
   16.5102    1.8401    8.2177 H   0  0  0  0  0  0  0  0  0  0  0  0
   17.0457    0.2128    9.5998 C   0  0  0  0  0  0  0  0  0  0  0  0
   17.2408   -0.7391    9.1052 H   0  0  0  0  0  0  0  0  0  0  0  0
   16.5210   -0.0773   11.0325 C   0  0  0  0  0  0  0  0  0  0  0  0
   18.3913    0.9897    9.6662 C   0  0  0  0  0  0  0  0  0  0  0  0
   18.2118    1.9043   10.2468 H   0  0  0  0  0  0  0  0  0  0  0  0
   18.6630    1.3296    8.6584 H   0  0  0  0  0  0  0  0  0  0  0  0
   19.5947    0.1960   10.2670 C   0  0  0  0  0  0  0  0  0  0  0  0
   16.3909    0.6495    6.0027 H   0  0  0  0  0  0  0  0  0  0  0  0
   15.5485   -1.3034    5.6200 C   0  0  0  0  0  0  0  0  0  0  0  0
   17.0456   -0.6327    6.9843 H   0  0  0  0  0  0  0  0  0  0  0  0
   14.6503   -0.9102    5.1416 H   0  0  0  0  0  0  0  0  0  0  0  0
   15.2032   -2.6146    6.3279 C   0  0  0  0  0  0  0  0  0  0  0  0
   16.5653   -1.5811    4.5080 C   0  0  0  0  0  0  0  0  0  0  0  0
   14.3991   -2.4837    7.0565 H   0  0  0  0  0  0  0  0  0  0  0  0
   16.0734   -3.0211    6.8544 H   0  0  0  0  0  0  0  0  0  0  0  0
   14.8631   -3.3660    5.6070 H   0  0  0  0  0  0  0  0  0  0  0  0
   17.4984   -1.9866    4.9143 H   0  0  0  0  0  0  0  0  0  0  0  0
   16.8036   -0.6635    3.9599 H   0  0  0  0  0  0  0  0  0  0  0  0
   16.1663   -2.3044    3.7887 H   0  0  0  0  0  0  0  0  0  0  0  0
   15.3008   -1.0130   11.1252 C   0  0  0  0  0  0  0  0  0  0  0  0
   16.2738    0.8792   11.5131 H   0  0  0  0  0  0  0  0  0  0  0  0
   17.3163   -0.5141   11.6444 H   0  0  0  0  0  0  0  0  0  0  0  0
   15.5900   -2.4132   10.5798 C   0  0  0  0  0  0  0  0  0  0  0  0
   14.4748   -0.5758   10.5602 H   0  0  0  0  0  0  0  0  0  0  0  0
   14.8393   -1.1243   12.5814 C   0  0  0  0  0  0  0  0  0  0  0  0
   14.5883   -0.1387   12.9869 H   0  0  0  0  0  0  0  0  0  0  0  0
   15.6184   -1.5644   13.2132 H   0  0  0  0  0  0  0  0  0  0  0  0
   13.9456   -1.7531   12.6577 H   0  0  0  0  0  0  0  0  0  0  0  0
   16.4220   -2.8825   11.1156 H   0  0  0  0  0  0  0  0  0  0  0  0
   15.8433   -2.3940    9.5169 H   0  0  0  0  0  0  0  0  0  0  0  0
   14.7117   -3.0589   10.6882 H   0  0  0  0  0  0  0  0  0  0  0  0
   20.5299   -0.3619    9.1624 C   0  0  0  0  0  0  0  0  0  0  0  0
   19.2228   -0.6449   10.8434 H   0  0  0  0  0  0  0  0  0  0  0  0
   20.3770    1.1308   11.2277 C   0  0  0  0  0  0  0  0  0  0  0  0
   19.6673    1.6296   11.9012 H   0  0  0  0  0  0  0  0  0  0  0  0
   20.8157    1.9290   10.6125 H   0  0  0  0  0  0  0  0  0  0  0  0
   21.4906    0.4966   12.1006 C   0  0  0  0  0  0  0  0  0  0  0  0
   22.0733   -0.2243   11.5232 H   0  0  0  0  0  0  0  0  0  0  0  0
   20.9745   -0.1689   13.4014 C   0  0  0  0  0  0  0  0  0  0  0  0
   22.4757    1.6107   12.5029 C   0  0  0  0  0  0  0  0  0  0  0  0
   21.9786    2.3860   13.0961 H   0  0  0  0  0  0  0  0  0  0  0  0
   22.9122    2.0849   11.6172 H   0  0  0  0  0  0  0  0  0  0  0  0
   23.3028    1.2058   13.0964 H   0  0  0  0  0  0  0  0  0  0  0  0
   20.8858    0.4774    8.5496 H   0  0  0  0  0  0  0  0  0  0  0  0
   19.9188   -1.4321    8.2364 C   0  0  0  0  0  0  0  0  0  0  0  0
   21.4246   -0.7971    9.6189 H   0  0  0  0  0  0  0  0  0  0  0  0
   19.0455   -1.0110    7.7345 H   0  0  0  0  0  0  0  0  0  0  0  0
   19.4938   -2.6943    8.9897 C   0  0  0  0  0  0  0  0  0  0  0  0
   20.9233   -1.8112    7.1439 C   0  0  0  0  0  0  0  0  0  0  0  0
   18.7273   -2.4852    9.7401 H   0  0  0  0  0  0  0  0  0  0  0  0
   20.3456   -3.1584    9.4973 H   0  0  0  0  0  0  0  0  0  0  0  0
   19.0733   -3.4326    8.2982 H   0  0  0  0  0  0  0  0  0  0  0  0
   21.8319   -2.2474    7.5727 H   0  0  0  0  0  0  0  0  0  0  0  0
   21.2112   -0.9324    6.5576 H   0  0  0  0  0  0  0  0  0  0  0  0
   20.4887   -2.5434    6.4548 H   0  0  0  0  0  0  0  0  0  0  0  0
   20.2713   -1.5337   13.2794 C   0  0  0  0  0  0  0  0  0  0  0  0
   20.2997    0.5322   13.9110 H   0  0  0  0  0  0  0  0  0  0  0  0
   21.8280   -0.3029   14.0811 H   0  0  0  0  0  0  0  0  0  0  0  0
   21.1591   -2.5955   12.6310 C   0  0  0  0  0  0  0  0  0  0  0  0
   19.3590   -1.4281   12.6900 H   0  0  0  0  0  0  0  0  0  0  0  0
   19.8341   -2.0147   14.6679 C   0  0  0  0  0  0  0  0  0  0  0  0
   19.1637   -1.2873   15.1376 H   0  0  0  0  0  0  0  0  0  0  0  0
   20.6949   -2.1616   15.3291 H   0  0  0  0  0  0  0  0  0  0  0  0
   19.2952   -2.9657   14.5971 H   0  0  0  0  0  0  0  0  0  0  0  0
   22.0975   -2.7186   13.1825 H   0  0  0  0  0  0  0  0  0  0  0  0
   21.4044   -2.3385   11.5978 H   0  0  0  0  0  0  0  0  0  0  0  0
   20.6514   -3.5660   12.6098 H   0  0  0  0  0  0  0  0  0  0  0  0
  1  2  1  0  0  0  0
  1  5  1  0  0  0  0
  1  6  1  0  0  0  0
  1  7  1  0  0  0  0
  2  3  1  0  0  0  0
  2  8  1  0  0  0  0
  2  9  1  0  0  0  0
  3  4  1  0  0  0  0
  3 10  1  0  0  0  0
  3 11  1  0  0  0  0
  4 12  1  0  0  0  0
  4 13  1  0  0  0  0
  4 14  1  0  0  0  0
 15 14  1  0  0  0  0
 16 14  1  0  0  0  0
 17 14  1  0  0  0  0
 18 13  1  0  0  0  0
 19 13  1  0  0  0  0
 20 13  1  0  0  0  0
 21  6  1  0  0  0  0
 22  6  1  0  0  0  0
 23  6  1  0  0  0  0
 24 23  1  0  0  0  0
 25 23  1  0  0  0  0
 26 23  1  0  0  0  0
 27 21  1  0  0  0  0
 28 21  1  0  0  0  0
 29 21  1  0  0  0  0
 30 28  1  0  0  0  0
 31 28  1  0  0  0  0
 32 28  1  0  0  0  0
 33 31  1  0  0  0  0
 34 31  1  0  0  0  0
 35 31  1  0  0  0  0
 36 32  1  0  0  0  0
 37 32  1  0  0  0  0
 38 32  1  0  0  0  0
 39 26  1  0  0  0  0
 40 26  1  0  0  0  0
 41 26  1  0  0  0  0
 42 41  1  0  0  0  0
 43 41  1  0  0  0  0
 44 41  1  0  0  0  0
 45 40  1  0  0  0  0
 46 40  1  0  0  0  0
 47 40  1  0  0  0  0
 48 45  1  0  0  0  0
 49 45  1  0  0  0  0
 50 45  1  0  0  0  0
 51 48  1  0  0  0  0
 52 48  1  0  0  0  0
 53 48  1  0  0  0  0
 54 50  1  0  0  0  0
 55 50  1  0  0  0  0
 56 50  1  0  0  0  0
 57 44  1  0  0  0  0
 58 44  1  0  0  0  0
 59 44  1  0  0  0  0
 60 59  1  0  0  0  0
 61 59  1  0  0  0  0
 62 59  1  0  0  0  0
 63 57  1  0  0  0  0
 64 57  1  0  0  0  0
 65 57  1  0  0  0  0
 66 64  1  0  0  0  0
 67 64  1  0  0  0  0
 68 64  1  0  0  0  0
 69 67  1  0  0  0  0
 70 67  1  0  0  0  0
 71 67  1  0  0  0  0
 72 68  1  0  0  0  0
 73 68  1  0  0  0  0
 74 68  1  0  0  0  0
 75 62  1  0  0  0  0
 76 62  1  0  0  0  0
 77 62  1  0  0  0  0
 78 77  1  0  0  0  0
 79 77  1  0  0  0  0
 80 77  1  0  0  0  0
 81 76  1  0  0  0  0
 82 76  1  0  0  0  0
 83 76  1  0  0  0  0
 84 81  1  0  0  0  0
 85 81  1  0  0  0  0
 86 81  1  0  0  0  0
 87 86  1  0  0  0  0
 88 86  1  0  0  0  0
 89 86  1  0  0  0  0
 90 84  1  0  0  0  0
 91 84  1  0  0  0  0
 92 84  1  0  0  0  0
 93 80  1  0  0  0  0
 94 80  1  0  0  0  0
 95 80  1  0  0  0  0
 96 95  1  0  0  0  0
 97 95  1  0  0  0  0
 98 95  1  0  0  0  0
 99 98  1  0  0  0  0
100 98  1  0  0  0  0
101 98  1  0  0  0  0
102101  1  0  0  0  0
103101  1  0  0  0  0
104101  1  0  0  0  0
105 93  1  0  0  0  0
106 93  1  0  0  0  0
107 93  1  0  0  0  0
108106  1  0  0  0  0
109106  1  0  0  0  0
110106  1  0  0  0  0
111109  1  0  0  0  0
112109  1  0  0  0  0
113109  1  0  0  0  0
114110  1  0  0  0  0
115110  1  0  0  0  0
116110  1  0  0  0  0
117100  1  0  0  0  0
118100  1  0  0  0  0
119100  1  0  0  0  0
120117  1  0  0  0  0
121117  1  0  0  0  0
122117  1  0  0  0  0
123122  1  0  0  0  0
124122  1  0  0  0  0
125122  1  0  0  0  0
126120  1  0  0  0  0
127120  1  0  0  0  0
128120  1  0  0  0  0
129104  1  0  0  0  0
130104  1  0  0  0  0
131104  1  0  0  0  0
132131  1  0  0  0  0
133131  1  0  0  0  0
134131  1  0  0  0  0
135134  1  0  0  0  0
136134  1  0  0  0  0
137134  1  0  0  0  0
138137  1  0  0  0  0
139137  1  0  0  0  0
140137  1  0  0  0  0
141129  1  0  0  0  0
142129  1  0  0  0  0
143129  1  0  0  0  0
144142  1  0  0  0  0
145142  1  0  0  0  0
146142  1  0  0  0  0
147145  1  0  0  0  0
148145  1  0  0  0  0
149145  1  0  0  0  0
150146  1  0  0  0  0
151146  1  0  0  0  0
152146  1  0  0  0  0
153136  1  0  0  0  0
154136  1  0  0  0  0
155136  1  0  0  0  0
156153  1  0  0  0  0
157153  1  0  0  0  0
158153  1  0  0  0  0
159158  1  0  0  0  0
160158  1  0  0  0  0
161158  1  0  0  0  0
162156  1  0  0  0  0
163156  1  0  0  0  0
164156  1  0  0  0  0
165140  1  0  0  0  0
166140  1  0  0  0  0
167140  1  0  0  0  0
168167  1  0  0  0  0
169167  1  0  0  0  0
170167  1  0  0  0  0
171170  1  0  0  0  0
172170  1  0  0  0  0
173170  1  0  0  0  0
174173  1  0  0  0  0
175173  1  0  0  0  0
176173  1  0  0  0  0
177165  1  0  0  0  0
178165  1  0  0  0  0
179165  1  0  0  0  0
180178  1  0  0  0  0
181178  1  0  0  0  0
182178  1  0  0  0  0
183181  1  0  0  0  0
184181  1  0  0  0  0
185181  1  0  0  0  0
186182  1  0  0  0  0
187182  1  0  0  0  0
188182  1  0  0  0  0
189172  1  0  0  0  0
190172  1  0  0  0  0
191172  1  0  0  0  0
192189  1  0  0  0  0
193189  1  0  0  0  0
194189  1  0  0  0  0
195194  1  0  0  0  0
196194  1  0  0  0  0
197194  1  0  0  0  0
198192  1  0  0  0  0
199192  1  0  0  0  0
200192  1  0  0  0  0
M  END
