
 OpenBabel06181217463D

 32 31  0  0  0  0  0  0  0  0999 V2000
   -0.5360    0.1516    0.3554 C   0  0  0  0  0  0  0  0  0  0  0  0
   -0.6200   -1.1967    1.0720 C   0  0  0  0  0  0  0  0  0  0  0  0
    0.7012    0.3237   -0.3353 O   0  0  0  0  0  0  0  0  0  0  0  0
    1.7783    0.6992    0.5110 C   0  0  0  0  0  0  0  0  0  0  0  0
   -0.6817    0.9726    1.0673 H   0  0  0  0  0  0  0  0  0  0  0  0
   -1.3360    0.2326   -0.3880 H   0  0  0  0  0  0  0  0  0  0  0  0
    0.2247   -1.2986    1.7622 H   0  0  0  0  0  0  0  0  0  0  0  0
   -0.6141   -2.3889    0.0960 C   0  0  0  0  0  0  0  0  0  0  0  0
   -1.5288   -1.2103    1.6832 H   0  0  0  0  0  0  0  0  0  0  0  0
    2.0238   -0.1023    1.2123 H   0  0  0  0  0  0  0  0  0  0  0  0
    1.5417    1.6187    1.0548 H   0  0  0  0  0  0  0  0  0  0  0  0
    2.6554    0.8841   -0.1154 H   0  0  0  0  0  0  0  0  0  0  0  0
    0.2710   -2.2889   -0.5429 H   0  0  0  0  0  0  0  0  0  0  0  0
   -1.7319   -2.3798   -0.8012 O   0  0  0  0  0  0  0  0  0  0  0  0
   -0.4822   -3.7200    0.8618 C   0  0  0  0  0  0  0  0  0  0  0  0
   -1.3416   -3.8547    1.5290 H   0  0  0  0  0  0  0  0  0  0  0  0
    0.4005   -3.6666    1.5108 H   0  0  0  0  0  0  0  0  0  0  0  0
   -0.3737   -4.9463   -0.0601 C   0  0  0  0  0  0  0  0  0  0  0  0
    0.7132   -4.8735   -0.9878 O   0  0  0  0  0  0  0  0  0  0  0  0
   -1.2772   -4.9886   -0.6800 H   0  0  0  0  0  0  0  0  0  0  0  0
   -0.3356   -6.2441    0.7469 C   0  0  0  0  0  0  0  0  0  0  0  0
   -1.2677   -6.3846    1.3036 H   0  0  0  0  0  0  0  0  0  0  0  0
    0.4875   -6.2461    1.4691 H   0  0  0  0  0  0  0  0  0  0  0  0
   -0.1894   -7.1048    0.0859 H   0  0  0  0  0  0  0  0  0  0  0  0
   -3.0285   -2.4329   -0.2303 C   0  0  0  0  0  0  0  0  0  0  0  0
   -3.2547   -1.5143    0.3167 H   0  0  0  0  0  0  0  0  0  0  0  0
   -3.1526   -3.3036    0.4172 H   0  0  0  0  0  0  0  0  0  0  0  0
   -3.7506   -2.5177   -1.0476 H   0  0  0  0  0  0  0  0  0  0  0  0
    2.0225   -4.8413   -0.4433 C   0  0  0  0  0  0  0  0  0  0  0  0
    2.2431   -5.7533    0.1166 H   0  0  0  0  0  0  0  0  0  0  0  0
    2.1718   -3.9606    0.1858 H   0  0  0  0  0  0  0  0  0  0  0  0
    2.7298   -4.7806   -1.2756 H   0  0  0  0  0  0  0  0  0  0  0  0
  1  2  1  0  0  0  0
  1  3  1  0  0  0  0
  3  4  1  0  0  0  0
  5  1  1  0  0  0  0
  6  1  1  0  0  0  0
  7  2  1  0  0  0  0
  8  2  1  0  0  0  0
  9  2  1  0  0  0  0
 10  4  1  0  0  0  0
 11  4  1  0  0  0  0
 12  4  1  0  0  0  0
 13  8  1  0  0  0  0
 14  8  1  0  0  0  0
 15  8  1  0  0  0  0
 16 15  1  0  0  0  0
 17 15  1  0  0  0  0
 18 15  1  0  0  0  0
 19 18  1  0  0  0  0
 20 18  1  0  0  0  0
 21 18  1  0  0  0  0
 22 21  1  0  0  0  0
 23 21  1  0  0  0  0
 24 21  1  0  0  0  0
 25 14  1  0  0  0  0
 26 25  1  0  0  0  0
 27 25  1  0  0  0  0
 28 25  1  0  0  0  0
 29 19  1  0  0  0  0
 30 29  1  0  0  0  0
 31 29  1  0  0  0  0
 32 29  1  0  0  0  0
M  END
