
 OpenBabel10311216273D

135134  0  0  0  0  0  0  0  0999 V2000
    0.8937   -0.0304    0.0522 C   0  0  0  0  0  0  0  0  0  0  0  0
    2.2266    0.2346    0.7393 C   0  0  0  0  0  0  0  0  0  0  0  0
    3.0558   -0.0747    0.0936 H   0  0  0  0  0  0  0  0  0  0  0  0
    2.3151   -0.3469    1.6636 H   0  0  0  0  0  0  0  0  0  0  0  0
    2.3479    1.2956    0.9775 H   0  0  0  0  0  0  0  0  0  0  0  0
    0.8343   -1.4238   -0.2458 O   0  0  0  0  0  0  0  0  0  0  0  0
    0.8711    0.5232   -0.8933 H   0  0  0  0  0  0  0  0  0  0  0  0
   -0.2785    0.3732    0.9550 C   0  0  0  0  0  0  0  0  0  0  0  0
    0.1560   -1.5331   -0.9351 H   0  0  0  0  0  0  0  0  0  0  0  0
   -0.1701    1.4356    1.2079 H   0  0  0  0  0  0  0  0  0  0  0  0
   -0.2357   -0.1998    1.8898 H   0  0  0  0  0  0  0  0  0  0  0  0
   -1.6497    0.1443    0.3057 C   0  0  0  0  0  0  0  0  0  0  0  0
   -1.7666   -0.9198    0.0721 H   0  0  0  0  0  0  0  0  0  0  0  0
   -1.6953    0.8720   -0.9212 O   0  0  0  0  0  0  0  0  0  0  0  0
   -2.7796    0.6060    1.2405 C   0  0  0  0  0  0  0  0  0  0  0  0
   -2.6490    1.6682    1.4823 H   0  0  0  0  0  0  0  0  0  0  0  0
   -2.7042    0.0391    2.1772 H   0  0  0  0  0  0  0  0  0  0  0  0
   -4.1791    0.4137    0.6408 C   0  0  0  0  0  0  0  0  0  0  0  0
   -4.3158   -0.9501    0.2435 O   0  0  0  0  0  0  0  0  0  0  0  0
   -4.2723    1.0355   -0.2565 H   0  0  0  0  0  0  0  0  0  0  0  0
   -5.2740    0.7904    1.6529 C   0  0  0  0  0  0  0  0  0  0  0  0
   -2.4700    0.5448   -1.4125 H   0  0  0  0  0  0  0  0  0  0  0  0
   -5.1185   -1.0064   -0.3052 H   0  0  0  0  0  0  0  0  0  0  0  0
   -5.1292    1.8383    1.9442 H   0  0  0  0  0  0  0  0  0  0  0  0
   -5.1727    0.1752    2.5556 H   0  0  0  0  0  0  0  0  0  0  0  0
   -6.6917    0.6062    1.0948 C   0  0  0  0  0  0  0  0  0  0  0  0
   -6.8500   -0.4541    0.8694 H   0  0  0  0  0  0  0  0  0  0  0  0
   -6.7879    1.3320   -0.1310 O   0  0  0  0  0  0  0  0  0  0  0  0
   -7.7595    1.0917    2.0893 C   0  0  0  0  0  0  0  0  0  0  0  0
   -7.6142    2.1584    2.2998 H   0  0  0  0  0  0  0  0  0  0  0  0
   -7.6338    0.5421    3.0305 H   0  0  0  0  0  0  0  0  0  0  0  0
   -9.1869    0.8847    1.5635 C   0  0  0  0  0  0  0  0  0  0  0  0
   -9.3388   -0.4937    1.2217 O   0  0  0  0  0  0  0  0  0  0  0  0
   -9.3167    1.4726    0.6485 H   0  0  0  0  0  0  0  0  0  0  0  0
  -10.2465    1.2967    2.5988 C   0  0  0  0  0  0  0  0  0  0  0  0
   -7.6101    1.0474   -0.5682 H   0  0  0  0  0  0  0  0  0  0  0  0
  -10.1597   -0.5732    0.7044 H   0  0  0  0  0  0  0  0  0  0  0  0
  -10.0744    2.3439    2.8770 H   0  0  0  0  0  0  0  0  0  0  0  0
  -10.1419    0.6847    3.5030 H   0  0  0  0  0  0  0  0  0  0  0  0
  -11.6749    1.1392    2.0580 C   0  0  0  0  0  0  0  0  0  0  0  0
  -11.8476    0.0853    1.8151 H   0  0  0  0  0  0  0  0  0  0  0  0
  -11.7745    1.8880    0.8453 O   0  0  0  0  0  0  0  0  0  0  0  0
  -12.7329    1.6171    3.0656 C   0  0  0  0  0  0  0  0  0  0  0  0
  -12.5898    2.6832    3.2796 H   0  0  0  0  0  0  0  0  0  0  0  0
  -12.5998    1.0621    4.0024 H   0  0  0  0  0  0  0  0  0  0  0  0
  -14.1611    1.4041    2.5427 C   0  0  0  0  0  0  0  0  0  0  0  0
  -14.3089    0.0226    2.2085 O   0  0  0  0  0  0  0  0  0  0  0  0
  -14.2922    1.9856    1.6239 H   0  0  0  0  0  0  0  0  0  0  0  0
  -15.2255    1.8180    3.5711 C   0  0  0  0  0  0  0  0  0  0  0  0
  -12.5985    1.6150    0.4049 H   0  0  0  0  0  0  0  0  0  0  0  0
  -15.1258   -0.0619    1.6864 H   0  0  0  0  0  0  0  0  0  0  0  0
  -15.0569    2.8664    3.8466 H   0  0  0  0  0  0  0  0  0  0  0  0
  -15.1260    1.2086    4.4774 H   0  0  0  0  0  0  0  0  0  0  0  0
  -16.6493    1.6562    3.0185 C   0  0  0  0  0  0  0  0  0  0  0  0
  -16.8172    0.6015    2.7756 H   0  0  0  0  0  0  0  0  0  0  0  0
  -16.7408    2.4025    1.8033 O   0  0  0  0  0  0  0  0  0  0  0  0
  -17.7179    2.1319    4.0150 C   0  0  0  0  0  0  0  0  0  0  0  0
  -17.5791    3.1981    4.2308 H   0  0  0  0  0  0  0  0  0  0  0  0
  -17.5933    1.5766    4.9529 H   0  0  0  0  0  0  0  0  0  0  0  0
  -19.1400    1.9162    3.4768 C   0  0  0  0  0  0  0  0  0  0  0  0
  -19.2808    0.5356    3.1356 O   0  0  0  0  0  0  0  0  0  0  0  0
  -19.2638    2.5008    2.5589 H   0  0  0  0  0  0  0  0  0  0  0  0
  -20.2151    2.3234    4.4962 C   0  0  0  0  0  0  0  0  0  0  0  0
  -17.5595    2.1256    1.3561 H   0  0  0  0  0  0  0  0  0  0  0  0
  -20.0928    0.4511    2.6062 H   0  0  0  0  0  0  0  0  0  0  0  0
  -20.0536    3.3723    4.7743 H   0  0  0  0  0  0  0  0  0  0  0  0
  -20.1202    1.7136    5.4027 H   0  0  0  0  0  0  0  0  0  0  0  0
  -21.6336    2.1554    3.9322 C   0  0  0  0  0  0  0  0  0  0  0  0
  -21.7959    1.0996    3.6902 H   0  0  0  0  0  0  0  0  0  0  0  0
  -21.7180    2.8987    2.7146 O   0  0  0  0  0  0  0  0  0  0  0  0
  -22.7110    2.6297    4.9197 C   0  0  0  0  0  0  0  0  0  0  0  0
  -22.5766    3.6967    5.1346 H   0  0  0  0  0  0  0  0  0  0  0  0
  -22.5915    2.0765    5.8595 H   0  0  0  0  0  0  0  0  0  0  0  0
  -24.1285    2.4091    4.3719 C   0  0  0  0  0  0  0  0  0  0  0  0
  -24.2630    1.0276    4.0325 O   0  0  0  0  0  0  0  0  0  0  0  0
  -24.2472    2.9916    3.4519 H   0  0  0  0  0  0  0  0  0  0  0  0
  -25.2119    2.8156    5.3830 C   0  0  0  0  0  0  0  0  0  0  0  0
  -22.5328    2.6192    2.2622 H   0  0  0  0  0  0  0  0  0  0  0  0
  -25.0710    0.9395    3.4977 H   0  0  0  0  0  0  0  0  0  0  0  0
  -25.0544    3.8651    5.6609 H   0  0  0  0  0  0  0  0  0  0  0  0
  -25.1224    2.2070    6.2909 H   0  0  0  0  0  0  0  0  0  0  0  0
  -26.6258    2.6441    4.8086 C   0  0  0  0  0  0  0  0  0  0  0  0
  -26.7839    1.5877    4.5663 H   0  0  0  0  0  0  0  0  0  0  0  0
  -26.7024    3.3863    3.5898 O   0  0  0  0  0  0  0  0  0  0  0  0
  -27.7124    3.1169    5.7870 C   0  0  0  0  0  0  0  0  0  0  0  0
  -27.5823    4.1845    6.0017 H   0  0  0  0  0  0  0  0  0  0  0  0
  -27.5990    2.5651    6.7283 H   0  0  0  0  0  0  0  0  0  0  0  0
  -29.1251    2.8920    5.2277 C   0  0  0  0  0  0  0  0  0  0  0  0
  -29.2538    1.5096    4.8903 O   0  0  0  0  0  0  0  0  0  0  0  0
  -29.2377    3.4725    4.3058 H   0  0  0  0  0  0  0  0  0  0  0  0
  -30.2182    3.2982    6.2283 C   0  0  0  0  0  0  0  0  0  0  0  0
  -27.5124    3.1036    3.1307 H   0  0  0  0  0  0  0  0  0  0  0  0
  -30.0568    1.4196    4.3477 H   0  0  0  0  0  0  0  0  0  0  0  0
  -30.0684    4.3503    6.5005 H   0  0  0  0  0  0  0  0  0  0  0  0
  -30.1309    2.6966    7.1412 H   0  0  0  0  0  0  0  0  0  0  0  0
  -31.6282    3.1144    5.6467 C   0  0  0  0  0  0  0  0  0  0  0  0
  -31.7811    2.0545    5.4166 H   0  0  0  0  0  0  0  0  0  0  0  0
  -31.7022    3.8416    4.4195 O   0  0  0  0  0  0  0  0  0  0  0  0
  -32.7210    3.5932    6.6145 C   0  0  0  0  0  0  0  0  0  0  0  0
  -32.5832    4.6585    6.8361 H   0  0  0  0  0  0  0  0  0  0  0  0
  -32.6196    3.0374    7.5549 H   0  0  0  0  0  0  0  0  0  0  0  0
  -34.1332    3.3861    6.0452 C   0  0  0  0  0  0  0  0  0  0  0  0
  -34.2690    2.0144    5.6724 O   0  0  0  0  0  0  0  0  0  0  0  0
  -34.2431    3.9912    5.1385 H   0  0  0  0  0  0  0  0  0  0  0  0
  -35.2218    3.7735    7.0570 C   0  0  0  0  0  0  0  0  0  0  0  0
  -32.5109    3.5494    3.9624 H   0  0  0  0  0  0  0  0  0  0  0  0
  -35.0765    1.9448    5.1322 H   0  0  0  0  0  0  0  0  0  0  0  0
  -35.0814    4.8271    7.3290 H   0  0  0  0  0  0  0  0  0  0  0  0
  -35.1128    3.1742    7.9693 H   0  0  0  0  0  0  0  0  0  0  0  0
  -36.6409    3.5703    6.5033 C   0  0  0  0  0  0  0  0  0  0  0  0
  -36.7946    2.5046    6.3006 H   0  0  0  0  0  0  0  0  0  0  0  0
  -36.7465    4.2694    5.2635 O   0  0  0  0  0  0  0  0  0  0  0  0
  -37.7085    4.0661    7.4891 C   0  0  0  0  0  0  0  0  0  0  0  0
  -37.5460    5.1280    7.7116 H   0  0  0  0  0  0  0  0  0  0  0  0
  -37.5940    3.5080    8.4269 H   0  0  0  0  0  0  0  0  0  0  0  0
  -39.1412    3.8927    6.9606 C   0  0  0  0  0  0  0  0  0  0  0  0
  -39.3139    2.5377    6.5493 O   0  0  0  0  0  0  0  0  0  0  0  0
  -39.2774    4.5297    6.0794 H   0  0  0  0  0  0  0  0  0  0  0  0
  -40.1758    4.2645    8.0323 C   0  0  0  0  0  0  0  0  0  0  0  0
  -37.5711    3.9700    4.8398 H   0  0  0  0  0  0  0  0  0  0  0  0
  -40.1480    2.5007    6.0465 H   0  0  0  0  0  0  0  0  0  0  0  0
  -40.0240    5.3178    8.3002 H   0  0  0  0  0  0  0  0  0  0  0  0
  -40.0063    3.6658    8.9360 H   0  0  0  0  0  0  0  0  0  0  0  0
  -41.6283    4.0537    7.5801 C   0  0  0  0  0  0  0  0  0  0  0  0
  -41.8019    2.9836    7.4174 H   0  0  0  0  0  0  0  0  0  0  0  0
  -41.8283    4.7193    6.3352 O   0  0  0  0  0  0  0  0  0  0  0  0
  -42.6120    4.5793    8.6330 C   0  0  0  0  0  0  0  0  0  0  0  0
  -42.3741    5.6184    8.8903 H   0  0  0  0  0  0  0  0  0  0  0  0
  -42.4905    3.9809    9.5444 H   0  0  0  0  0  0  0  0  0  0  0  0
  -44.0721    4.5277    8.1964 C   0  0  0  0  0  0  0  0  0  0  0  0
  -44.3843    3.2457    7.6711 O   0  0  0  0  0  0  0  0  0  0  0  0
  -44.2766    5.2760    7.4240 H   0  0  0  0  0  0  0  0  0  0  0  0
  -44.7254    4.7293    9.0514 H   0  0  0  0  0  0  0  0  0  0  0  0
  -42.6805    4.3960    5.9869 H   0  0  0  0  0  0  0  0  0  0  0  0
  -45.3508    3.2126    7.5545 H   0  0  0  0  0  0  0  0  0  0  0  0
  1  2  1  0  0  0  0
  3  2  1  0  0  0  0
  4  2  1  0  0  0  0
  5  2  1  0  0  0  0
  6  1  1  0  0  0  0
  7  1  1  0  0  0  0
  8  1  1  0  0  0  0
  9  6  1  0  0  0  0
 10  8  1  0  0  0  0
 11  8  1  0  0  0  0
 12  8  1  0  0  0  0
 13 12  1  0  0  0  0
 14 12  1  0  0  0  0
 15 12  1  0  0  0  0
 16 15  1  0  0  0  0
 17 15  1  0  0  0  0
 18 15  1  0  0  0  0
 19 18  1  0  0  0  0
 20 18  1  0  0  0  0
 21 18  1  0  0  0  0
 22 14  1  0  0  0  0
 23 19  1  0  0  0  0
 24 21  1  0  0  0  0
 25 21  1  0  0  0  0
 26 21  1  0  0  0  0
 27 26  1  0  0  0  0
 28 26  1  0  0  0  0
 29 26  1  0  0  0  0
 30 29  1  0  0  0  0
 31 29  1  0  0  0  0
 32 29  1  0  0  0  0
 33 32  1  0  0  0  0
 34 32  1  0  0  0  0
 35 32  1  0  0  0  0
 36 28  1  0  0  0  0
 37 33  1  0  0  0  0
 38 35  1  0  0  0  0
 39 35  1  0  0  0  0
 40 35  1  0  0  0  0
 41 40  1  0  0  0  0
 42 40  1  0  0  0  0
 43 40  1  0  0  0  0
 44 43  1  0  0  0  0
 45 43  1  0  0  0  0
 46 43  1  0  0  0  0
 47 46  1  0  0  0  0
 48 46  1  0  0  0  0
 49 46  1  0  0  0  0
 50 42  1  0  0  0  0
 51 47  1  0  0  0  0
 52 49  1  0  0  0  0
 53 49  1  0  0  0  0
 54 49  1  0  0  0  0
 55 54  1  0  0  0  0
 56 54  1  0  0  0  0
 57 54  1  0  0  0  0
 58 57  1  0  0  0  0
 59 57  1  0  0  0  0
 60 57  1  0  0  0  0
 61 60  1  0  0  0  0
 62 60  1  0  0  0  0
 63 60  1  0  0  0  0
 64 56  1  0  0  0  0
 65 61  1  0  0  0  0
 66 63  1  0  0  0  0
 67 63  1  0  0  0  0
 68 63  1  0  0  0  0
 69 68  1  0  0  0  0
 70 68  1  0  0  0  0
 71 68  1  0  0  0  0
 72 71  1  0  0  0  0
 73 71  1  0  0  0  0
 74 71  1  0  0  0  0
 75 74  1  0  0  0  0
 76 74  1  0  0  0  0
 77 74  1  0  0  0  0
 78 70  1  0  0  0  0
 79 75  1  0  0  0  0
 80 77  1  0  0  0  0
 81 77  1  0  0  0  0
 82 77  1  0  0  0  0
 83 82  1  0  0  0  0
 84 82  1  0  0  0  0
 85 82  1  0  0  0  0
 86 85  1  0  0  0  0
 87 85  1  0  0  0  0
 88 85  1  0  0  0  0
 89 88  1  0  0  0  0
 90 88  1  0  0  0  0
 91 88  1  0  0  0  0
 92 84  1  0  0  0  0
 93 89  1  0  0  0  0
 94 91  1  0  0  0  0
 95 91  1  0  0  0  0
 96 91  1  0  0  0  0
 97 96  1  0  0  0  0
 98 96  1  0  0  0  0
 99 96  1  0  0  0  0
100 99  1  0  0  0  0
101 99  1  0  0  0  0
102 99  1  0  0  0  0
103102  1  0  0  0  0
104102  1  0  0  0  0
105102  1  0  0  0  0
106 98  1  0  0  0  0
107103  1  0  0  0  0
108105  1  0  0  0  0
109105  1  0  0  0  0
110105  1  0  0  0  0
111110  1  0  0  0  0
112110  1  0  0  0  0
113110  1  0  0  0  0
114113  1  0  0  0  0
115113  1  0  0  0  0
116113  1  0  0  0  0
117116  1  0  0  0  0
118116  1  0  0  0  0
119116  1  0  0  0  0
120112  1  0  0  0  0
121117  1  0  0  0  0
122119  1  0  0  0  0
123119  1  0  0  0  0
124119  1  0  0  0  0
125124  1  0  0  0  0
126124  1  0  0  0  0
127124  1  0  0  0  0
128127  1  0  0  0  0
129127  1  0  0  0  0
130127  1  0  0  0  0
131130  1  0  0  0  0
132130  1  0  0  0  0
133130  1  0  0  0  0
134126  1  0  0  0  0
135131  1  0  0  0  0
M  END
