
 OpenBabel06161212583D

  9  8  0  0  0  0  0  0  0  0999 V2000
  -18.9442   10.2328   -0.2840 O   0  0  0  0  0  0  0  0  0  0  0  0
  -19.4268   11.5590   -0.4433 C   0  0  0  0  0  0  0  0  0  0  0  0
  -18.9712   11.9821   -1.3428 H   0  0  0  0  0  0  0  0  0  0  0  0
  -19.1082   12.1543    0.4179 H   0  0  0  0  0  0  0  0  0  0  0  0
  -20.9364   11.5485   -0.5678 C   0  0  0  0  0  0  0  0  0  0  0  0
  -21.3958   11.1165    0.3269 H   0  0  0  0  0  0  0  0  0  0  0  0
  -21.2485   10.9308   -1.4162 H   0  0  0  0  0  0  0  0  0  0  0  0
  -21.3229   12.5622   -0.7074 H   0  0  0  0  0  0  0  0  0  0  0  0
  -19.3468    9.8691    0.5230 H   0  0  0  0  0  0  0  0  0  0  0  0
  2  1  1  0  0  0  0
  3  2  1  0  0  0  0
  4  2  1  0  0  0  0
  5  2  1  0  0  0  0
  6  5  1  0  0  0  0
  7  5  1  0  0  0  0
  8  5  1  0  0  0  0
  9  1  1  0  0  0  0
M  END
