
 OpenBabel06181211223D

198204  0  0  0  0  0  0  0  0999 V2000
    0.1026    0.1959    1.1218 C   0  0  0  0  0  0  0  0  0  0  0  0
    0.0483    0.8325   -0.2749 C   0  0  0  0  0  0  0  0  0  0  0  0
    1.4283    0.5137   -1.0333 C   0  0  0  0  0  0  0  0  0  0  0  0
   -1.2635    0.2713   -1.0202 C   0  0  0  0  0  0  0  0  0  0  0  0
   -0.0950    2.3694   -0.3275 C   0  0  0  0  0  0  0  0  0  0  0  0
   -0.2382    3.0028   -1.3677 O   0  0  0  0  0  0  0  0  0  0  0  0
    1.3653   -0.5074   -1.4318 H   0  0  0  0  0  0  0  0  0  0  0  0
    2.8001    0.6579   -0.1895 C   0  0  0  0  0  0  0  0  0  0  0  0
    1.5063    1.1665   -1.9130 H   0  0  0  0  0  0  0  0  0  0  0  0
    0.9043    0.5528    1.7537 H   0  0  0  0  0  0  0  0  0  0  0  0
    0.1908   -0.8906    1.0341 H   0  0  0  0  0  0  0  0  0  0  0  0
   -0.7442    0.4200    1.7545 H   0  0  0  0  0  0  0  0  0  0  0  0
   -2.6526    0.2685   -0.1951 C   0  0  0  0  0  0  0  0  0  0  0  0
   -1.0488   -0.7542   -1.3495 H   0  0  0  0  0  0  0  0  0  0  0  0
   -1.4199    0.8475   -1.9417 H   0  0  0  0  0  0  0  0  0  0  0  0
   -2.7853    1.5797    0.5891 C   0  0  0  0  0  0  0  0  0  0  0  0
   -2.6457   -1.0390    0.6322 C   0  0  0  0  0  0  0  0  0  0  0  0
   -3.9332    0.1556   -1.1341 C   0  0  0  0  0  0  0  0  0  0  0  0
   -2.7829    2.4250   -0.1048 H   0  0  0  0  0  0  0  0  0  0  0  0
   -2.0225    1.7461    1.3392 H   0  0  0  0  0  0  0  0  0  0  0  0
   -3.6765    1.6510    1.1962 H   0  0  0  0  0  0  0  0  0  0  0  0
   -2.6675   -2.1560    0.1308 O   0  0  0  0  0  0  0  0  0  0  0  0
   -3.9069   -0.8276   -1.6226 H   0  0  0  0  0  0  0  0  0  0  0  0
   -3.8164    0.8821   -1.9501 H   0  0  0  0  0  0  0  0  0  0  0  0
   -5.3956    0.3593   -0.4911 C   0  0  0  0  0  0  0  0  0  0  0  0
   -5.7263    1.8731   -0.5455 C   0  0  0  0  0  0  0  0  0  0  0  0
   -5.4959   -0.2159    0.9238 C   0  0  0  0  0  0  0  0  0  0  0  0
   -6.4618   -0.3932   -1.3780 C   0  0  0  0  0  0  0  0  0  0  0  0
   -4.7728    0.1610    1.6389 H   0  0  0  0  0  0  0  0  0  0  0  0
   -5.3854   -1.3005    0.8855 H   0  0  0  0  0  0  0  0  0  0  0  0
   -6.4373    0.0498    1.4011 H   0  0  0  0  0  0  0  0  0  0  0  0
   -5.8914    2.5033   -1.5812 O   0  0  0  0  0  0  0  0  0  0  0  0
   -6.0595   -1.3865   -1.6197 H   0  0  0  0  0  0  0  0  0  0  0  0
   -6.5434    0.1312   -2.3400 H   0  0  0  0  0  0  0  0  0  0  0  0
   -7.9151   -0.6177   -0.8489 C   0  0  0  0  0  0  0  0  0  0  0  0
   -8.6289    0.6354   -0.3441 C   0  0  0  0  0  0  0  0  0  0  0  0
   -8.0354   -1.8228    0.0989 C   0  0  0  0  0  0  0  0  0  0  0  0
   -8.5024   -0.9348   -1.7247 H   0  0  0  0  0  0  0  0  0  0  0  0
   -8.6224    1.4209   -1.1064 H   0  0  0  0  0  0  0  0  0  0  0  0
   -8.1879    1.0416    0.5691 H   0  0  0  0  0  0  0  0  0  0  0  0
   -9.6758    0.4090   -0.1107 H   0  0  0  0  0  0  0  0  0  0  0  0
   -7.9781   -2.9851   -0.2849 O   0  0  0  0  0  0  0  0  0  0  0  0
   -8.1417   -1.4497    1.4021 O   0  0  0  0  0  0  0  0  0  0  0  0
   -8.0898   -2.4630    2.4376 C   0  0  0  0  0  0  0  0  0  0  0  0
   -2.6194   -0.8097    1.9697 O   0  0  0  0  0  0  0  0  0  0  0  0
   -2.6026   -1.9584    2.8423 C   0  0  0  0  0  0  0  0  0  0  0  0
   -0.0713    2.9333    0.9064 O   0  0  0  0  0  0  0  0  0  0  0  0
   -0.2885    4.3536    0.9900 C   0  0  0  0  0  0  0  0  0  0  0  0
   -1.1220    4.6416    0.3349 H   0  0  0  0  0  0  0  0  0  0  0  0
    0.9819    5.1199    0.6094 C   0  0  0  0  0  0  0  0  0  0  0  0
   -0.6819    4.6353    2.4425 C   0  0  0  0  0  0  0  0  0  0  0  0
   -0.7962    6.1258    2.7323 C   0  0  0  0  0  0  0  0  0  0  0  0
    1.2209    4.9621   -0.4484 H   0  0  0  0  0  0  0  0  0  0  0  0
    1.8348    4.7196    1.1709 H   0  0  0  0  0  0  0  0  0  0  0  0
    0.8464    6.6122    0.8849 C   0  0  0  0  0  0  0  0  0  0  0  0
    0.0781    7.0383    0.2282 H   0  0  0  0  0  0  0  0  0  0  0  0
    1.7886    7.1178    0.6465 H   0  0  0  0  0  0  0  0  0  0  0  0
   -1.6456    6.5415    2.1782 H   0  0  0  0  0  0  0  0  0  0  0  0
    0.4760    6.8710    2.3418 C   0  0  0  0  0  0  0  0  0  0  0  0
   -1.0016    6.2779    3.7976 H   0  0  0  0  0  0  0  0  0  0  0  0
    1.2998    6.5492    2.9910 H   0  0  0  0  0  0  0  0  0  0  0  0
    0.3406    7.9456    2.5044 H   0  0  0  0  0  0  0  0  0  0  0  0
    0.0583    4.1824    3.1162 H   0  0  0  0  0  0  0  0  0  0  0  0
   -1.6306    4.1339    2.6704 H   0  0  0  0  0  0  0  0  0  0  0  0
   -5.7672    2.4245    0.6968 O   0  0  0  0  0  0  0  0  0  0  0  0
   -5.9057    3.8567    0.8299 C   0  0  0  0  0  0  0  0  0  0  0  0
   -6.7580    4.1991    0.2298 H   0  0  0  0  0  0  0  0  0  0  0  0
   -4.6174    4.5782    0.4109 C   0  0  0  0  0  0  0  0  0  0  0  0
   -6.1909    4.1091    2.3164 C   0  0  0  0  0  0  0  0  0  0  0  0
   -5.4409    3.5837    2.9242 H   0  0  0  0  0  0  0  0  0  0  0  0
   -7.1530    3.6582    2.5880 H   0  0  0  0  0  0  0  0  0  0  0  0
   -6.1874    5.5900    2.6795 C   0  0  0  0  0  0  0  0  0  0  0  0
   -4.4341    4.4480   -0.6610 H   0  0  0  0  0  0  0  0  0  0  0  0
   -3.7624    4.1231    0.9220 H   0  0  0  0  0  0  0  0  0  0  0  0
   -4.6429    6.0631    0.7511 C   0  0  0  0  0  0  0  0  0  0  0  0
   -4.8980    6.2752    2.2391 C   0  0  0  0  0  0  0  0  0  0  0  0
   -5.4217    6.5646    0.1649 H   0  0  0  0  0  0  0  0  0  0  0  0
   -3.6858    6.5195    0.4737 H   0  0  0  0  0  0  0  0  0  0  0  0
   -7.0440    6.0844    2.2067 H   0  0  0  0  0  0  0  0  0  0  0  0
   -6.3090    5.7021    3.7628 H   0  0  0  0  0  0  0  0  0  0  0  0
   -4.9507    7.3471    2.4586 H   0  0  0  0  0  0  0  0  0  0  0  0
   -4.0560    5.8723    2.8163 H   0  0  0  0  0  0  0  0  0  0  0  0
   -1.2172   -2.6155    2.8567 C   0  0  0  0  0  0  0  0  0  0  0  0
   -3.3660   -2.6780    2.5197 H   0  0  0  0  0  0  0  0  0  0  0  0
   -2.9659   -1.4363    4.2357 C   0  0  0  0  0  0  0  0  0  0  0  0
   -6.7104   -3.1356    2.5211 C   0  0  0  0  0  0  0  0  0  0  0  0
   -8.8738   -3.2062    2.2476 H   0  0  0  0  0  0  0  0  0  0  0  0
   -8.3842   -1.7351    3.7589 C   0  0  0  0  0  0  0  0  0  0  0  0
   -0.4524   -1.8526    3.0422 H   0  0  0  0  0  0  0  0  0  0  0  0
   -0.9837   -3.0421    1.8750 H   0  0  0  0  0  0  0  0  0  0  0  0
   -1.1081   -3.6997    3.9212 C   0  0  0  0  0  0  0  0  0  0  0  0
   -3.9883   -1.0391    4.2239 H   0  0  0  0  0  0  0  0  0  0  0  0
   -2.3221   -0.5815    4.4841 H   0  0  0  0  0  0  0  0  0  0  0  0
   -2.8328   -2.5062    5.3127 C   0  0  0  0  0  0  0  0  0  0  0  0
   -1.7858   -4.5264    3.6765 H   0  0  0  0  0  0  0  0  0  0  0  0
   -0.0916   -4.1087    3.9267 H   0  0  0  0  0  0  0  0  0  0  0  0
   -1.4484   -3.1461    5.3006 C   0  0  0  0  0  0  0  0  0  0  0  0
   -3.5922   -3.2805    5.1552 H   0  0  0  0  0  0  0  0  0  0  0  0
   -3.0245   -2.0625    6.2960 H   0  0  0  0  0  0  0  0  0  0  0  0
   -1.4030   -3.9491    6.0442 H   0  0  0  0  0  0  0  0  0  0  0  0
   -0.6997   -2.3983    5.5900 H   0  0  0  0  0  0  0  0  0  0  0  0
   -9.3967   -1.3149    3.7319 H   0  0  0  0  0  0  0  0  0  0  0  0
   -7.7120   -0.8707    3.8542 H   0  0  0  0  0  0  0  0  0  0  0  0
   -8.2264   -2.6330    4.9834 C   0  0  0  0  0  0  0  0  0  0  0  0
   -5.9344   -2.3686    2.6057 H   0  0  0  0  0  0  0  0  0  0  0  0
   -6.4905   -3.6918    1.6044 H   0  0  0  0  0  0  0  0  0  0  0  0
   -6.5865   -4.0648    3.7228 C   0  0  0  0  0  0  0  0  0  0  0  0
   -6.8614   -3.3125    5.0194 C   0  0  0  0  0  0  0  0  0  0  0  0
   -9.0129   -3.3967    4.9798 H   0  0  0  0  0  0  0  0  0  0  0  0
   -8.3606   -2.0388    5.8946 H   0  0  0  0  0  0  0  0  0  0  0  0
   -7.2885   -4.9005    3.6201 H   0  0  0  0  0  0  0  0  0  0  0  0
   -5.5775   -4.4920    3.7533 H   0  0  0  0  0  0  0  0  0  0  0  0
   -6.8089   -4.0032    5.8682 H   0  0  0  0  0  0  0  0  0  0  0  0
   -6.0821   -2.5561    5.1763 H   0  0  0  0  0  0  0  0  0  0  0  0
    2.8967   -0.6339    0.6542 C   0  0  0  0  0  0  0  0  0  0  0  0
    2.7709    1.9798    0.5927 C   0  0  0  0  0  0  0  0  0  0  0  0
    1.9797    2.0544    1.3274 H   0  0  0  0  0  0  0  0  0  0  0  0
    2.6883    2.8266   -0.0950 H   0  0  0  0  0  0  0  0  0  0  0  0
    3.6357    2.1425    1.2219 H   0  0  0  0  0  0  0  0  0  0  0  0
    2.8457   -1.7611    0.1733 O   0  0  0  0  0  0  0  0  0  0  0  0
    3.0030   -0.3819    1.9840 O   0  0  0  0  0  0  0  0  0  0  0  0
    2.9358   -1.5163    2.8687 C   0  0  0  0  0  0  0  0  0  0  0  0
    4.2933   -2.2185    2.9489 C   0  0  0  0  0  0  0  0  0  0  0  0
    2.1639   -2.2163    2.5209 H   0  0  0  0  0  0  0  0  0  0  0  0
    2.5189   -0.9737    4.2384 C   0  0  0  0  0  0  0  0  0  0  0  0
    5.0757   -1.4797    3.1606 H   0  0  0  0  0  0  0  0  0  0  0  0
    4.5536   -2.6564    1.9786 H   0  0  0  0  0  0  0  0  0  0  0  0
    4.3036   -3.3050    4.0189 C   0  0  0  0  0  0  0  0  0  0  0  0
    1.5180   -0.5300    4.1700 H   0  0  0  0  0  0  0  0  0  0  0  0
    3.1863   -0.1505    4.5263 H   0  0  0  0  0  0  0  0  0  0  0  0
    2.5379   -2.0532    5.3127 C   0  0  0  0  0  0  0  0  0  0  0  0
    3.6169   -4.1100    3.7288 H   0  0  0  0  0  0  0  0  0  0  0  0
    3.8921   -2.7516    5.3800 C   0  0  0  0  0  0  0  0  0  0  0  0
    5.3040   -3.7465    4.0869 H   0  0  0  0  0  0  0  0  0  0  0  0
    1.7587   -2.7937    5.1000 H   0  0  0  0  0  0  0  0  0  0  0  0
    2.3009   -1.6090    6.2858 H   0  0  0  0  0  0  0  0  0  0  0  0
    4.6509   -2.0412    5.7302 H   0  0  0  0  0  0  0  0  0  0  0  0
    3.8519   -3.5646    6.1132 H   0  0  0  0  0  0  0  0  0  0  0  0
    4.0977    0.6517   -1.1097 C   0  0  0  0  0  0  0  0  0  0  0  0
    3.8846    1.2656   -1.9951 H   0  0  0  0  0  0  0  0  0  0  0  0
    4.2391   -0.3675   -1.4939 H   0  0  0  0  0  0  0  0  0  0  0  0
    5.4983    1.1418   -0.4843 C   0  0  0  0  0  0  0  0  0  0  0  0
    5.7151    0.5550    0.9151 C   0  0  0  0  0  0  0  0  0  0  0  0
    5.4791    2.6876   -0.5043 C   0  0  0  0  0  0  0  0  0  0  0  0
    6.6869    0.6891   -1.4172 C   0  0  0  0  0  0  0  0  0  0  0  0
    6.6530    1.2969   -2.3325 H   0  0  0  0  0  0  0  0  0  0  0  0
    6.4743   -0.3378   -1.7458 H   0  0  0  0  0  0  0  0  0  0  0  0
    8.1742    0.7038   -0.8804 C   0  0  0  0  0  0  0  0  0  0  0  0
    8.3875   -0.4671    0.1052 C   0  0  0  0  0  0  0  0  0  0  0  0
    8.5937    2.0698   -0.3110 C   0  0  0  0  0  0  0  0  0  0  0  0
    9.1149    0.4147   -2.0714 C   0  0  0  0  0  0  0  0  0  0  0  0
    9.0596    1.2106   -2.8227 H   0  0  0  0  0  0  0  0  0  0  0  0
    8.8610   -0.5302   -2.5645 H   0  0  0  0  0  0  0  0  0  0  0  0
   10.1574    0.3376   -1.7397 H   0  0  0  0  0  0  0  0  0  0  0  0
    5.7763   -0.5360    0.8801 H   0  0  0  0  0  0  0  0  0  0  0  0
    4.9587    0.8193    1.6462 H   0  0  0  0  0  0  0  0  0  0  0  0
    6.6129    0.9560    1.3771 H   0  0  0  0  0  0  0  0  0  0  0  0
    5.2431    3.3529   -1.5066 O   0  0  0  0  0  0  0  0  0  0  0  0
    8.1577   -1.6369   -0.1849 O   0  0  0  0  0  0  0  0  0  0  0  0
    8.0883    2.3180    0.6246 H   0  0  0  0  0  0  0  0  0  0  0  0
    8.3933    2.8752   -1.0261 H   0  0  0  0  0  0  0  0  0  0  0  0
    9.6671    2.0886   -0.0866 H   0  0  0  0  0  0  0  0  0  0  0  0
    8.7452   -0.0512    1.3546 O   0  0  0  0  0  0  0  0  0  0  0  0
    5.6787    3.2185    0.7326 O   0  0  0  0  0  0  0  0  0  0  0  0
    5.3295    4.6040    0.9108 C   0  0  0  0  0  0  0  0  0  0  0  0
    8.5162   -0.9942    2.4240 C   0  0  0  0  0  0  0  0  0  0  0  0
    4.4483    4.8496    0.3022 H   0  0  0  0  0  0  0  0  0  0  0  0
    6.5001    5.5102    0.5319 C   0  0  0  0  0  0  0  0  0  0  0  0
    4.9564    4.7797    2.3872 C   0  0  0  0  0  0  0  0  0  0  0  0
    6.7200    5.4147   -0.5374 H   0  0  0  0  0  0  0  0  0  0  0  0
    7.4076    5.1803    1.0535 H   0  0  0  0  0  0  0  0  0  0  0  0
    6.2033    6.9693    0.8692 C   0  0  0  0  0  0  0  0  0  0  0  0
    5.7683    4.3988    3.0208 H   0  0  0  0  0  0  0  0  0  0  0  0
    4.0828    4.1610    2.6256 H   0  0  0  0  0  0  0  0  0  0  0  0
    4.6684    6.2348    2.7343 C   0  0  0  0  0  0  0  0  0  0  0  0
    3.7588    6.5598    2.2165 H   0  0  0  0  0  0  0  0  0  0  0  0
    4.4740    6.3274    3.8088 H   0  0  0  0  0  0  0  0  0  0  0  0
    5.8278    7.1434    2.3389 C   0  0  0  0  0  0  0  0  0  0  0  0
    5.3798    7.3286    0.2393 H   0  0  0  0  0  0  0  0  0  0  0  0
    7.0772    7.5875    0.6367 H   0  0  0  0  0  0  0  0  0  0  0  0
    5.5584    8.1880    2.5309 H   0  0  0  0  0  0  0  0  0  0  0  0
    6.6983    6.9165    2.9667 H   0  0  0  0  0  0  0  0  0  0  0  0
    9.7569   -1.8491    2.6753 C   0  0  0  0  0  0  0  0  0  0  0  0
    7.6639   -1.6414    2.1765 H   0  0  0  0  0  0  0  0  0  0  0  0
    8.1484   -0.2033    3.6869 C   0  0  0  0  0  0  0  0  0  0  0  0
   10.6234   -1.2009    2.8570 H   0  0  0  0  0  0  0  0  0  0  0  0
   10.0003   -2.4323    1.7802 H   0  0  0  0  0  0  0  0  0  0  0  0
    9.5446   -2.7853    3.8643 C   0  0  0  0  0  0  0  0  0  0  0  0
    7.2427    0.3882    3.5127 H   0  0  0  0  0  0  0  0  0  0  0  0
    8.9379    0.5249    3.9130 H   0  0  0  0  0  0  0  0  0  0  0  0
    7.9299   -1.1254    4.8821 C   0  0  0  0  0  0  0  0  0  0  0  0
    7.0450   -1.7478    4.7052 H   0  0  0  0  0  0  0  0  0  0  0  0
    7.7234   -0.5296    5.7786 H   0  0  0  0  0  0  0  0  0  0  0  0
    8.7640   -3.5156    3.6158 H   0  0  0  0  0  0  0  0  0  0  0  0
    9.1375   -2.0247    5.1252 C   0  0  0  0  0  0  0  0  0  0  0  0
   10.4617   -3.3521    4.0580 H   0  0  0  0  0  0  0  0  0  0  0  0
    9.9803   -1.4136    5.4700 H   0  0  0  0  0  0  0  0  0  0  0  0
    8.9093   -2.7356    5.9278 H   0  0  0  0  0  0  0  0  0  0  0  0
  1  2  1  0  0  0  0
  2  3  1  0  0  0  0
  2  4  1  0  0  0  0
  2  5  1  0  0  0  0
  6  5  2  0  0  0  0
  7  3  1  0  0  0  0
  8  3  1  0  0  0  0
  9  3  1  0  0  0  0
 10  1  1  0  0  0  0
 11  1  1  0  0  0  0
 12  1  1  0  0  0  0
 13  4  1  0  0  0  0
 14  4  1  0  0  0  0
 15  4  1  0  0  0  0
 16 13  1  0  0  0  0
 17 13  1  0  0  0  0
 18 13  1  0  0  0  0
 19 16  1  0  0  0  0
 20 16  1  0  0  0  0
 21 16  1  0  0  0  0
 22 17  2  0  0  0  0
 23 18  1  0  0  0  0
 24 18  1  0  0  0  0
 25 18  1  0  0  0  0
 26 25  1  0  0  0  0
 27 25  1  0  0  0  0
 28 25  1  0  0  0  0
 29 27  1  0  0  0  0
 30 27  1  0  0  0  0
 31 27  1  0  0  0  0
 32 26  2  0  0  0  0
 33 28  1  0  0  0  0
 34 28  1  0  0  0  0
 35 28  1  0  0  0  0
 36 35  1  0  0  0  0
 37 35  1  0  0  0  0
 38 35  1  0  0  0  0
 39 36  1  0  0  0  0
 40 36  1  0  0  0  0
 41 36  1  0  0  0  0
 42 37  2  0  0  0  0
 43 37  1  0  0  0  0
 44 43  1  0  0  0  0
 45 17  1  0  0  0  0
 46 45  1  0  0  0  0
 47  5  1  0  0  0  0
 48 47  1  0  0  0  0
 49 48  1  0  0  0  0
 50 48  1  0  0  0  0
 51 48  1  0  0  0  0
 52 51  1  0  0  0  0
 53 50  1  0  0  0  0
 54 50  1  0  0  0  0
 55 50  1  0  0  0  0
 56 55  1  0  0  0  0
 57 55  1  0  0  0  0
 58 52  1  0  0  0  0
 59 52  1  0  0  0  0
 59 55  1  0  0  0  0
 60 52  1  0  0  0  0
 61 59  1  0  0  0  0
 62 59  1  0  0  0  0
 63 51  1  0  0  0  0
 64 51  1  0  0  0  0
 65 26  1  0  0  0  0
 66 65  1  0  0  0  0
 67 66  1  0  0  0  0
 68 66  1  0  0  0  0
 69 66  1  0  0  0  0
 70 69  1  0  0  0  0
 71 69  1  0  0  0  0
 72 69  1  0  0  0  0
 73 68  1  0  0  0  0
 74 68  1  0  0  0  0
 75 68  1  0  0  0  0
 76 75  1  0  0  0  0
 76 72  1  0  0  0  0
 77 75  1  0  0  0  0
 78 75  1  0  0  0  0
 79 72  1  0  0  0  0
 80 72  1  0  0  0  0
 81 76  1  0  0  0  0
 82 76  1  0  0  0  0
 83 46  1  0  0  0  0
 84 46  1  0  0  0  0
 85 46  1  0  0  0  0
 86 44  1  0  0  0  0
 87 44  1  0  0  0  0
 88 44  1  0  0  0  0
 89 83  1  0  0  0  0
 90 83  1  0  0  0  0
 91 83  1  0  0  0  0
 92 85  1  0  0  0  0
 93 85  1  0  0  0  0
 94 85  1  0  0  0  0
 95 91  1  0  0  0  0
 96 91  1  0  0  0  0
 97 94  1  0  0  0  0
 97 91  1  0  0  0  0
 98 94  1  0  0  0  0
 99 94  1  0  0  0  0
100 97  1  0  0  0  0
101 97  1  0  0  0  0
102 88  1  0  0  0  0
103 88  1  0  0  0  0
104 88  1  0  0  0  0
105 86  1  0  0  0  0
106 86  1  0  0  0  0
107 86  1  0  0  0  0
108104  1  0  0  0  0
108107  1  0  0  0  0
109104  1  0  0  0  0
110104  1  0  0  0  0
111107  1  0  0  0  0
112107  1  0  0  0  0
113108  1  0  0  0  0
114108  1  0  0  0  0
115  8  1  0  0  0  0
116  8  1  0  0  0  0
117116  1  0  0  0  0
118116  1  0  0  0  0
119116  1  0  0  0  0
120115  2  0  0  0  0
121115  1  0  0  0  0
122121  1  0  0  0  0
123122  1  0  0  0  0
124122  1  0  0  0  0
125122  1  0  0  0  0
126123  1  0  0  0  0
127123  1  0  0  0  0
128123  1  0  0  0  0
129125  1  0  0  0  0
130125  1  0  0  0  0
131125  1  0  0  0  0
132128  1  0  0  0  0
133128  1  0  0  0  0
133131  1  0  0  0  0
134128  1  0  0  0  0
135131  1  0  0  0  0
136131  1  0  0  0  0
137133  1  0  0  0  0
138133  1  0  0  0  0
139  8  1  0  0  0  0
140139  1  0  0  0  0
141139  1  0  0  0  0
142139  1  0  0  0  0
143142  1  0  0  0  0
144142  1  0  0  0  0
145142  1  0  0  0  0
146145  1  0  0  0  0
147145  1  0  0  0  0
148145  1  0  0  0  0
149148  1  0  0  0  0
150148  1  0  0  0  0
151148  1  0  0  0  0
152151  1  0  0  0  0
153151  1  0  0  0  0
154151  1  0  0  0  0
155143  1  0  0  0  0
156143  1  0  0  0  0
157143  1  0  0  0  0
158144  2  0  0  0  0
159149  2  0  0  0  0
160150  1  0  0  0  0
161150  1  0  0  0  0
162150  1  0  0  0  0
163149  1  0  0  0  0
164144  1  0  0  0  0
165164  1  0  0  0  0
166163  1  0  0  0  0
167165  1  0  0  0  0
168165  1  0  0  0  0
169165  1  0  0  0  0
170168  1  0  0  0  0
171168  1  0  0  0  0
172168  1  0  0  0  0
173169  1  0  0  0  0
174169  1  0  0  0  0
175169  1  0  0  0  0
176175  1  0  0  0  0
177175  1  0  0  0  0
178172  1  0  0  0  0
178175  1  0  0  0  0
179172  1  0  0  0  0
180172  1  0  0  0  0
181178  1  0  0  0  0
182178  1  0  0  0  0
183166  1  0  0  0  0
184166  1  0  0  0  0
185166  1  0  0  0  0
186183  1  0  0  0  0
187183  1  0  0  0  0
188183  1  0  0  0  0
189185  1  0  0  0  0
190185  1  0  0  0  0
191185  1  0  0  0  0
192191  1  0  0  0  0
193191  1  0  0  0  0
194188  1  0  0  0  0
195188  1  0  0  0  0
195191  1  0  0  0  0
196188  1  0  0  0  0
197195  1  0  0  0  0
198195  1  0  0  0  0
M  END
