file:/home/renata/Renata/MOLFILES/PPO/POLY_PPO15.mol
__Jmol-12_06251314383D 1   1.00000     0.00000     0
Jmol version 12.3.28  2012-05-30 15:29 EXTRACT: ({0:137 141:145 148:156})
152151  0  0  0  0              1 V2000
   0.18765   0.06509   0.21571 C   0  0  0  0  0  0
   1.47693   0.70371  -0.36247 C   0  0  0  0  0  0
   1.55899   1.77598  -0.03785 H   0  0  0  0  0  0
   1.48789   0.59940  -1.89018 C   0  0  0  0  0  0
   2.50454  -0.10388   0.17582 O   0  0  0  0  0  0
   3.75931   0.53912   0.23460 C   0  0  0  0  0  0
   0.61667   1.10601  -2.33067 H   0  0  0  0  0  0
   1.46533  -0.44580  -2.23459 H   0  0  0  0  0  0
   2.38097   1.06274  -2.33458 H   0  0  0  0  0  0
   3.75302   1.37523   0.97031 H   0  0  0  0  0  0
   4.06041   0.98170  -0.74309 H   0  0  0  0  0  0
   4.73712  -0.59088   0.66191 C   0  0  0  0  0  0
   4.61307  -1.47999  -0.01425 H   0  0  0  0  0  0
   4.49213  -0.98906   2.12057 C   0  0  0  0  0  0
   6.01046   0.01327   0.54219 O   0  0  0  0  0  0
   3.45720  -1.32865   2.27192 H   0  0  0  0  0  0
   4.66487  -0.15260   2.81471 H   0  0  0  0  0  0
   5.14805  -1.81191   2.44103 H   0  0  0  0  0  0
   7.05317  -0.91206   0.32275 C   0  0  0  0  0  0
   6.88248  -1.53315  -0.58645 H   0  0  0  0  0  0
   7.15986  -1.62101   1.17647 H   0  0  0  0  0  0
   8.32293  -0.02791   0.16721 C   0  0  0  0  0  0
   8.43757   0.64512   1.05895 H   0  0  0  0  0  0
   8.24932   0.79180  -1.12436 C   0  0  0  0  0  0
   9.35997  -0.98528   0.08026 O   0  0  0  0  0  0
   7.34934   1.42380  -1.14585 H   0  0  0  0  0  0
   8.21869   0.15263  -2.01987 H   0  0  0  0  0  0
   9.10940   1.46766  -1.24082 H   0  0  0  0  0  0
  10.64186  -0.46523   0.35899 C   0  0  0  0  0  0
  -0.84495   0.93678  -0.18890 O   0  0  0  0  0  0
   0.24247  -0.00002   1.32751 H   0  0  0  0  0  0
   0.05477  -0.97795  -0.15454 H   0  0  0  0  0  0
  10.70554  -0.03658   1.38503 H   0  0  0  0  0  0
  10.92412   0.35234  -0.34390 H   0  0  0  0  0  0
  11.58215  -1.69297   0.19854 C   0  0  0  0  0  0
  11.40027  -2.19028  -0.79278 H   0  0  0  0  0  0
  11.36677  -2.68426   1.34571 C   0  0  0  0  0  0
  12.87414  -1.12638   0.29132 O   0  0  0  0  0  0
  10.31867  -3.01379   1.39513 H   0  0  0  0  0  0
  11.61690  -2.24788   2.32459 H   0  0  0  0  0  0
  11.97813  -3.59161   1.23290 H   0  0  0  0  0  0
  13.88475  -1.93096  -0.27636 C   0  0  0  0  0  0
  -2.14356   0.40739  -0.00810 C   0  0  0  0  0  0
  -2.53156   0.45982   1.46957 C   0  0  0  0  0  0
  -2.22721  -0.64263  -0.40368 H   0  0  0  0  0  0
  -3.03409   1.36862  -0.84445 C   0  0  0  0  0  0
  -2.65241   1.46092  -1.88697 H   0  0  0  0  0  0
  -3.03294   2.39548  -0.41169 H   0  0  0  0  0  0
  -4.30268   0.75128  -0.83760 O   0  0  0  0  0  0
  -2.35307   1.45049   1.91291 H   0  0  0  0  0  0
  -1.97415  -0.27104   2.07448 H   0  0  0  0  0  0
  -3.59900   0.23069   1.60847 H   0  0  0  0  0  0
  13.67732  -2.18515  -1.34121 H   0  0  0  0  0  0
  13.99226  -2.89870   0.26626 H   0  0  0  0  0  0
  15.17393  -1.07073  -0.14494 C   0  0  0  0  0  0
  15.31833  -0.74812   0.92116 H   0  0  0  0  0  0
  15.10023   0.14530  -1.07302 C   0  0  0  0  0  0
  16.18517  -1.96230  -0.57159 O   0  0  0  0  0  0
  14.20755   0.75303  -0.86341 H   0  0  0  0  0  0
  15.05409  -0.14403  -2.13377 H   0  0  0  0  0  0
  15.96619   0.81365  -0.95777 H   0  0  0  0  0  0
  -5.37200   1.62688  -1.13580 C   0  0  0  0  0  0
  -5.30470   2.07775  -2.59485 C   0  0  0  0  0  0
  -5.38010   2.51436  -0.44448 H   0  0  0  0  0  0
  -6.62336   0.73933  -0.88478 C   0  0  0  0  0  0
  -6.58998   0.28501   0.13176 H   0  0  0  0  0  0
  -6.66769  -0.10466  -1.61144 H   0  0  0  0  0  0
  -7.70644   1.63622  -1.00000 O   0  0  0  0  0  0
  -5.16683   1.23357  -3.28635 H   0  0  0  0  0  0
  -4.48003   2.78397  -2.77523 H   0  0  0  0  0  0
  -6.22899   2.59400  -2.89549 H   0  0  0  0  0  0
  17.49123  -1.55409  -0.22704 C   0  0  0  0  0  0
  17.60375  -1.36217   0.86446 H   0  0  0  0  0  0
  17.77907  -0.61132  -0.74676 H   0  0  0  0  0  0
  18.38359  -2.74206  -0.68617 C   0  0  0  0  0  0
  18.15608  -3.00471  -1.75501 H   0  0  0  0  0  0
  18.16941  -3.95391   0.22461 C   0  0  0  0  0  0
  19.69566  -2.24368  -0.51883 O   0  0  0  0  0  0
  17.11106  -4.25263   0.24684 H   0  0  0  0  0  0
  18.47211  -3.75187   1.26329 H   0  0  0  0  0  0
  18.73809  -4.83372  -0.11064 H   0  0  0  0  0  0
  -8.96522   1.00282  -1.11853 C   0  0  0  0  0  0
  -9.38207   0.39836   0.22253 C   0  0  0  0  0  0
  -8.96146   0.21769  -1.92425 H   0  0  0  0  0  0
  -9.90679   2.17417  -1.51642 C   0  0  0  0  0  0
  -9.51063   2.71962  -2.40293 H   0  0  0  0  0  0
  -9.98885   2.92052  -0.69241 H   0  0  0  0  0  0
 -11.13332   1.53926  -1.80261 O   0  0  0  0  0  0
  -9.27493   1.11178   1.05284 H   0  0  0  0  0  0
  -8.79068  -0.49285   0.48127 H   0  0  0  0  0  0
 -10.43495   0.07831   0.20550 H   0  0  0  0  0  0
  20.66649  -2.94852  -1.26137 C   0  0  0  0  0  0
  20.42234  -2.99268  -2.34775 H   0  0  0  0  0  0
  20.76220  -4.00329  -0.91441 H   0  0  0  0  0  0
  21.98198  -2.15832  -1.01321 C   0  0  0  0  0  0
  22.15173  -2.03340   0.09060 H   0  0  0  0  0  0
  21.92939  -0.79419  -1.70730 C   0  0  0  0  0  0
  22.96329  -2.96992  -1.62717 O   0  0  0  0  0  0
  21.05271  -0.21578  -1.38068 H   0  0  0  0  0  0
  21.86642  -0.88834  -2.80212 H   0  0  0  0  0  0
  22.81405  -0.17873  -1.48780 H   0  0  0  0  0  0
 -12.20083   2.43499  -2.04181 C   0  0  0  0  0  0
 -12.11887   2.96768  -3.47247 C   0  0  0  0  0  0
 -12.21521   3.28371  -1.30377 H   0  0  0  0  0  0
 -13.45841   1.54085  -1.85029 C   0  0  0  0  0  0
 -13.42166   1.02024  -0.86620 H   0  0  0  0  0  0
 -13.51048   0.74643  -2.62984 H   0  0  0  0  0  0
 -14.53469   2.44885  -1.91178 O   0  0  0  0  0  0
 -12.02418   2.15948  -4.21272 H   0  0  0  0  0  0
 -11.26245   3.64233  -3.62012 H   0  0  0  0  0  0
 -13.02039   3.54197  -3.73413 H   0  0  0  0  0  0
  24.26851  -2.75376  -1.13645 C   0  0  0  0  0  0
  24.33461  -2.88530  -0.03210 H   0  0  0  0  0  0
  24.61914  -1.71802  -1.35205 H   0  0  0  0  0  0
  25.13042  -3.80661  -1.88648 C   0  0  0  0  0  0
  24.96461  -3.72795  -2.99588 H   0  0  0  0  0  0
  24.79144  -5.22068  -1.39662 C   0  0  0  0  0  0
  26.44983  -3.46181  -1.54923 O   0  0  0  0  0  0
  23.74521  -5.47744  -1.61640 H   0  0  0  0  0  0
  24.93404  -5.32971  -0.31082 H   0  0  0  0  0  0
  25.41886  -5.98407  -1.88157 H   0  0  0  0  0  0
 -15.80469   1.83570  -2.01931 C   0  0  0  0  0  0
 -16.20232   1.19762  -0.68565 C   0  0  0  0  0  0
 -15.81924   1.06503  -2.83942 H   0  0  0  0  0  0
 -16.74898   2.99275  -2.37040 C   0  0  0  0  0  0
 -16.48022   3.46366  -3.32725 H   0  0  0  0  0  0
 -16.73962   3.78496  -1.60646 H   0  0  0  0  0  0
 -18.16369   2.50971  -2.49398 O   0  0  0  0  0  0
 -16.14511   1.91099   0.14941 H   0  0  0  0  0  0
 -15.57260   0.33565  -0.42071 H   0  0  0  0  0  0
 -17.23779   0.82610  -0.72392 H   0  0  0  0  0  0
  27.35861  -4.42296  -2.25658 C   0  0  0  0  0  0
  27.20460  -4.34156  -3.34270 H   0  0  0  0  0  0
  27.13292  -5.44888  -1.93016 H   0  0  0  0  0  0
  28.78526  -4.09624  -1.92806 C   0  0  0  0  0  0
  28.93937  -4.17767  -0.84195 H   0  0  0  0  0  0
  29.09316  -2.69729  -2.37320 C   0  0  0  0  0  0
  29.69403  -5.05738  -2.63541 O   0  0  0  0  0  0
  28.42682  -1.99237  -1.85448 H   0  0  0  0  0  0
  28.93913  -2.61578  -3.45931 H   0  0  0  0  0  0
  30.13938  -2.45770  -2.13228 H   0  0  0  0  0  0
  30.64513  -4.83957  -2.41639 H   0  0  0  0  0  0
 -19.04708   3.64963  -2.90653 C   0  0  0  0  0  0
 -18.58508   4.18726  -4.22847 C   0  0  0  0  0  0
 -18.99633   4.44566  -2.14906 H   0  0  0  0  0  0
 -20.46179   3.16660  -3.03012 C   0  0  0  0  0  0
 -20.80070   2.77237  -2.06072 H   0  0  0  0  0  0
 -20.51266   2.37060  -3.78763 H   0  0  0  0  0  0
 -21.10961   4.00254  -3.33266 H   0  0  0  0  0  0
 -18.63586   3.39132  -4.98604 H   0  0  0  0  0  0
 -17.54765   4.54157  -4.13792 H   0  0  0  0  0  0
 -19.23290   5.02321  -4.53101 H   0  0  0  0  0  0
  1  2  1  0  0  0
  1 31  1  0  0  0
  2  3  1  0  0  0
  2  5  1  0  0  0
  4  8  1  0  0  0
  4  2  1  0  0  0
  5  6  1  0  0  0
  6 10  1  0  0  0
  6 12  1  0  0  0
  7  4  1  0  0  0
  9  4  1  0  0  0
 11  6  1  0  0  0
 12 13  1  0  0  0
 12 15  1  0  0  0
 12 14  1  0  0  0
 14 17  1  0  0  0
 14 18  1  0  0  0
 15 19  1  0  0  0
 16 14  1  0  0  0
 19 22  1  0  0  0
 19 21  1  0  0  0
 20 19  1  0  0  0
 22 23  1  0  0  0
 22 25  1  0  0  0
 24 28  1  0  0  0
 24 22  1  0  0  0
 25 29  1  0  0  0
 26 24  1  0  0  0
 27 24  1  0  0  0
 29 35  1  0  0  0
 29 33  1  0  0  0
 30  1  1  0  0  0
 32  1  1  0  0  0
 34 29  1  0  0  0
 35 36  1  0  0  0
 35 38  1  0  0  0
 35 37  1  0  0  0
 37 41  1  0  0  0
 37 40  1  0  0  0
 38 42  1  0  0  0
 39 37  1  0  0  0
 42 55  1  0  0  0
 42 54  1  0  0  0
 43 45  1  0  0  0
 43 30  1  0  0  0
 43 44  1  0  0  0
 44 50  1  0  0  0
 44 51  1  0  0  0
 46 48  1  0  0  0
 46 43  1  0  0  0
 47 46  1  0  0  0
 49 46  1  0  0  0
 52 44  1  0  0  0
 53 42  1  0  0  0
 55 58  1  0  0  0
 55 56  1  0  0  0
 57 61  1  0  0  0
 57 55  1  0  0  0
 58 72  1  0  0  0
 59 57  1  0  0  0
 60 57  1  0  0  0
 62 64  1  0  0  0
 62 49  1  0  0  0
 63 70  1  0  0  0
 63 62  1  0  0  0
 65 62  1  0  0  0
 65 66  1  0  0  0
 67 65  1  0  0  0
 68 65  1  0  0  0
 69 63  1  0  0  0
 71 63  1  0  0  0
 72 75  1  0  0  0
 72 73  1  0  0  0
 74 72  1  0  0  0
 75 76  1  0  0  0
 75 78  1  0  0  0
 75 77  1  0  0  0
 77 81  1  0  0  0
 77 80  1  0  0  0
 78 92  1  0  0  0
 79 77  1  0  0  0
 82 84  1  0  0  0
 82 68  1  0  0  0
 82 83  1  0  0  0
 83 89  1  0  0  0
 83 90  1  0  0  0
 85 87  1  0  0  0
 85 82  1  0  0  0
 86 85  1  0  0  0
 88 85  1  0  0  0
 91 83  1  0  0  0
 92 94  1  0  0  0
 92 95  1  0  0  0
 93 92  1  0  0  0
 95 98  1  0  0  0
 95 96  1  0  0  0
 97101  1  0  0  0
 97 95  1  0  0  0
 98112  1  0  0  0
 99 97  1  0  0  0
100 97  1  0  0  0
102104  1  0  0  0
102 88  1  0  0  0
103110  1  0  0  0
103102  1  0  0  0
105102  1  0  0  0
105106  1  0  0  0
107105  1  0  0  0
108105  1  0  0  0
109103  1  0  0  0
111103  1  0  0  0
112115  1  0  0  0
112113  1  0  0  0
114112  1  0  0  0
115116  1  0  0  0
115117  1  0  0  0
115118  1  0  0  0
117121  1  0  0  0
117120  1  0  0  0
118132  1  0  0  0
119117  1  0  0  0
122108  1  0  0  0
122123  1  0  0  0
123129  1  0  0  0
123130  1  0  0  0
124122  1  0  0  0
125127  1  0  0  0
125122  1  0  0  0
126125  1  0  0  0
128125  1  0  0  0
131123  1  0  0  0
133132  1  0  0  0
134132  1  0  0  0
135132  1  0  0  0
136135  1  0  0  0
137135  1  0  0  0
138135  1  0  0  0
139137  1  0  0  0
140137  1  0  0  0
141137  1  0  0  0
142138  1  0  0  0
143128  1  0  0  0
144143  1  0  0  0
145143  1  0  0  0
146143  1  0  0  0
147146  1  0  0  0
148146  1  0  0  0
149146  1  0  0  0
150144  1  0  0  0
151144  1  0  0  0
152144  1  0  0  0
M  END
