
 OpenBabel10101311143D

 37 36  0  0  1  0  0  0  0  0999 V2000
   -0.0281    0.1046    0.0319 C   0  0  1  0  0  0  0  0  0  0  0  0
    1.3076   -0.2493   -0.6712 C   0  0  0  0  0  0  0  0  0  0  0  0
   -0.1969    1.5690    0.0855 C   0  0  0  0  0  0  0  0  0  0  0  0
   -1.2089   -0.5361   -0.7418 C   0  0  0  0  0  0  0  0  0  0  0  0
   -0.0112   -0.2948    1.0514 H   0  0  0  0  0  0  0  0  0  0  0  0
    2.5829    0.2178    0.0765 C   0  0  1  0  0  0  0  0  0  0  0  0
    1.3072    0.1912   -1.6778 H   0  0  0  0  0  0  0  0  0  0  0  0
    1.3557   -1.3389   -0.8088 H   0  0  0  0  0  0  0  0  0  0  0  0
   -0.3300    2.7196    0.1051 N   0  0  0  0  0  0  0  0  0  0  0  0
   -1.0034   -1.6079   -0.8743 H   0  0  0  0  0  0  0  0  0  0  0  0
   -1.2514   -0.1011   -1.7498 H   0  0  0  0  0  0  0  0  0  0  0  0
   -2.5962   -0.3719   -0.0697 C   0  0  2  0  0  0  0  0  0  0  0  0
   -2.7869    0.6929    0.1048 H   0  0  0  0  0  0  0  0  0  0  0  0
   -2.6211   -1.0888    1.2197 C   0  0  0  0  0  0  0  0  0  0  0  0
   -3.6951   -0.9313   -1.0050 C   0  0  0  0  0  0  0  0  0  0  0  0
    2.6961   -0.4850    1.3689 C   0  0  0  0  0  0  0  0  0  0  0  0
    2.5177    1.2967    0.2554 H   0  0  0  0  0  0  0  0  0  0  0  0
    3.8316   -0.0748   -0.7926 C   0  0  0  0  0  0  0  0  0  0  0  0
    3.6753    0.3519   -1.7929 H   0  0  0  0  0  0  0  0  0  0  0  0
    3.9241   -1.1616   -0.9294 H   0  0  0  0  0  0  0  0  0  0  0  0
    5.1589    0.4687   -0.2165 C   0  0  2  0  0  0  0  0  0  0  0  0
   -2.6387   -1.6747    2.2193 N   0  0  0  0  0  0  0  0  0  0  0  0
    2.7893   -1.0602    2.3706 N   0  0  0  0  0  0  0  0  0  0  0  0
   -3.5397   -2.0100   -1.1435 H   0  0  0  0  0  0  0  0  0  0  0  0
   -3.5918   -0.4709   -1.9966 H   0  0  0  0  0  0  0  0  0  0  0  0
   -5.1322   -0.7176   -0.5069 C   0  0  0  0  0  0  0  0  0  0  0  0
   -5.5035    0.7029   -0.5071 C   0  0  0  0  0  0  0  0  0  0  0  0
   -5.2680   -1.1437    0.4925 H   0  0  0  0  0  0  0  0  0  0  0  0
   -5.8147   -1.2600   -1.1719 H   0  0  0  0  0  0  0  0  0  0  0  0
    5.2985    0.0999    0.8060 H   0  0  0  0  0  0  0  0  0  0  0  0
    5.1559    1.9429   -0.1982 C   0  0  0  0  0  0  0  0  0  0  0  0
    6.3390   -0.0290   -1.0536 C   0  0  0  0  0  0  0  0  0  0  0  0
    6.2642    0.3079   -2.0940 H   0  0  0  0  0  0  0  0  0  0  0  0
    6.3825   -1.1233   -1.0533 H   0  0  0  0  0  0  0  0  0  0  0  0
    7.2884    0.3440   -0.6527 H   0  0  0  0  0  0  0  0  0  0  0  0
   -5.7690    1.8314   -0.5163 N   0  0  0  0  0  0  0  0  0  0  0  0
    5.1231    3.1019   -0.1935 N   0  0  0  0  0  0  0  0  0  0  0  0
  1  2  1  0  0  0  0
  1  3  1  0  0  0  0
  1  4  1  0  0  0  0
  1  5  1  1  0  0  0
  6  2  1  0  0  0  0
  6 17  1  1  0  0  0
  7  2  1  0  0  0  0
  8  2  1  0  0  0  0
  9  3  3  0  0  0  0
 10  4  1  0  0  0  0
 11  4  1  0  0  0  0
 12  4  1  0  0  0  0
 12 13  1  1  0  0  0
 14 12  1  0  0  0  0
 15 12  1  0  0  0  0
 16  6  1  0  0  0  0
 18  6  1  0  0  0  0
 19 18  1  0  0  0  0
 20 18  1  0  0  0  0
 21 18  1  0  0  0  0
 21 30  1  1  0  0  0
 22 14  3  0  0  0  0
 23 16  3  0  0  0  0
 24 15  1  0  0  0  0
 25 15  1  0  0  0  0
 26 15  1  0  0  0  0
 27 26  1  0  0  0  0
 28 26  1  0  0  0  0
 29 26  1  0  0  0  0
 31 21  1  0  0  0  0
 32 21  1  0  0  0  0
 33 32  1  0  0  0  0
 34 32  1  0  0  0  0
 35 32  1  0  0  0  0
 36 27  3  0  0  0  0
 37 31  3  0  0  0  0
M  END
