
 OpenBabel07091214343D

134133  0  0  0  0  0  0  0  0999 V2000
    0.4121    0.1210    0.2706 C   0  0  0  0  0  0  0  0  0  0  0  0
   -0.9356    0.3517    1.1721 C   0  0  0  0  0  0  0  0  0  0  0  0
   -2.3066   -0.2125    0.5141 C   0  0  0  0  0  0  0  0  0  0  0  0
    1.8600    0.2973    1.0045 C   0  0  0  0  0  0  0  0  0  0  0  0
   -3.6164   -0.3779    1.4756 C   0  0  0  0  0  0  0  0  0  0  0  0
    3.1474    0.4341    0.0128 C   0  0  0  0  0  0  0  0  0  0  0  0
   -4.9864   -0.5513    0.6558 C   0  0  0  0  0  0  0  0  0  0  0  0
    4.5540    0.9719    0.6553 C   0  0  0  0  0  0  0  0  0  0  0  0
   -6.4150   -0.4070    1.4252 C   0  0  0  0  0  0  0  0  0  0  0  0
    5.8635    0.6878   -0.2517 C   0  0  0  0  0  0  0  0  0  0  0  0
   -7.5840   -0.9667    0.5048 C   0  0  0  0  0  0  0  0  0  0  0  0
    7.3398    0.8766    0.4204 C   0  0  0  0  0  0  0  0  0  0  0  0
   -9.0689   -1.2558    1.0645 C   0  0  0  0  0  0  0  0  0  0  0  0
    8.5006    0.9583   -0.6777 C   0  0  0  0  0  0  0  0  0  0  0  0
  -10.0276   -1.3114   -0.1923 C   0  0  0  0  0  0  0  0  0  0  0  0
   10.0011    1.4044   -0.2534 C   0  0  0  0  0  0  0  0  0  0  0  0
  -11.5996   -1.3293   -0.1000 C   0  0  0  0  0  0  0  0  0  0  0  0
   11.0185    0.8859   -1.3564 C   0  0  0  0  0  0  0  0  0  0  0  0
  -12.1242   -1.6760   -1.5163 C   0  0  0  0  0  0  0  0  0  0  0  0
   12.6097    0.9876   -1.1954 C   0  0  0  0  0  0  0  0  0  0  0  0
    0.3650   -0.8874   -0.1625 H   0  0  0  0  0  0  0  0  0  0  0  0
    0.3764    0.8063   -0.5862 H   0  0  0  0  0  0  0  0  0  0  0  0
   -0.7426   -0.3484    2.5430 C   0  0  0  0  0  0  0  0  0  0  0  0
   -1.1249    1.8938    1.2965 C   0  0  0  0  0  0  0  0  0  0  0  0
   -2.5782    0.4416   -0.3254 H   0  0  0  0  0  0  0  0  0  0  0  0
   -2.0923   -1.1895    0.0607 H   0  0  0  0  0  0  0  0  0  0  0  0
    1.7945    1.5759    1.8809 C   0  0  0  0  0  0  0  0  0  0  0  0
    2.0887   -1.0095    1.8221 C   0  0  0  0  0  0  0  0  0  0  0  0
   -3.4184   -1.6886    2.2924 C   0  0  0  0  0  0  0  0  0  0  0  0
   -3.7695    0.8636    2.3866 C   0  0  0  0  0  0  0  0  0  0  0  0
    3.3335   -0.5445   -0.4485 H   0  0  0  0  0  0  0  0  0  0  0  0
    2.8723    1.0995   -0.8167 H   0  0  0  0  0  0  0  0  0  0  0  0
   -4.9814    0.1719   -0.1711 H   0  0  0  0  0  0  0  0  0  0  0  0
   -4.9594   -1.5370    0.1710 H   0  0  0  0  0  0  0  0  0  0  0  0
    4.4282    2.5206    0.7619 C   0  0  0  0  0  0  0  0  0  0  0  0
    4.7785    0.2906    2.0296 C   0  0  0  0  0  0  0  0  0  0  0  0
   -6.4025   -1.1774    2.7585 C   0  0  0  0  0  0  0  0  0  0  0  0
   -6.6929    1.1037    1.6540 C   0  0  0  0  0  0  0  0  0  0  0  0
    5.7965   -0.3385   -0.6373 H   0  0  0  0  0  0  0  0  0  0  0  0
    5.8085    1.3315   -1.1399 H   0  0  0  0  0  0  0  0  0  0  0  0
   -7.6690   -0.2667   -0.3385 H   0  0  0  0  0  0  0  0  0  0  0  0
   -7.2324   -1.9061    0.0551 H   0  0  0  0  0  0  0  0  0  0  0  0
    7.3797    2.1739    1.2620 C   0  0  0  0  0  0  0  0  0  0  0  0
    7.6255   -0.3897    1.2780 C   0  0  0  0  0  0  0  0  0  0  0  0
   -9.0785   -2.6456    1.7466 C   0  0  0  0  0  0  0  0  0  0  0  0
   -9.5841   -0.2000    2.0521 C   0  0  0  0  0  0  0  0  0  0  0  0
    8.5588   -0.0278   -1.1591 H   0  0  0  0  0  0  0  0  0  0  0  0
    8.1700    1.6434   -1.4709 H   0  0  0  0  0  0  0  0  0  0  0  0
   -9.7782   -0.4494   -0.8282 H   0  0  0  0  0  0  0  0  0  0  0  0
   -9.7203   -2.1902   -0.7780 H   0  0  0  0  0  0  0  0  0  0  0  0
   10.0649    2.9563   -0.2474 C   0  0  0  0  0  0  0  0  0  0  0  0
   10.4287    0.8357    1.1129 C   0  0  0  0  0  0  0  0  0  0  0  0
  -12.1749   -2.3780    0.8610 C   0  0  0  0  0  0  0  0  0  0  0  0
  -12.1905    0.0506    0.2579 C   0  0  0  0  0  0  0  0  0  0  0  0
   10.7912   -0.1733   -1.5443 H   0  0  0  0  0  0  0  0  0  0  0  0
   10.7389    1.3978   -2.2881 H   0  0  0  0  0  0  0  0  0  0  0  0
  -11.7789   -0.9447   -2.2554 H   0  0  0  0  0  0  0  0  0  0  0  0
  -11.7813   -2.6672   -1.8333 H   0  0  0  0  0  0  0  0  0  0  0  0
  -13.2204   -1.6838   -1.5454 H   0  0  0  0  0  0  0  0  0  0  0  0
   13.0774    2.3131   -0.5857 C   0  0  0  0  0  0  0  0  0  0  0  0
   13.1099   -0.1763   -0.3060 C   0  0  0  0  0  0  0  0  0  0  0  0
   13.2144    0.8035   -2.6397 C   0  0  0  0  0  0  0  0  0  0  0  0
  -12.0036   -2.1139    1.9081 H   0  0  0  0  0  0  0  0  0  0  0  0
  -11.7506   -3.3692    0.6700 H   0  0  0  0  0  0  0  0  0  0  0  0
  -13.2624   -2.4640    0.7454 H   0  0  0  0  0  0  0  0  0  0  0  0
  -11.7353    0.8473   -0.3399 H   0  0  0  0  0  0  0  0  0  0  0  0
  -12.0667    0.3036    1.3130 H   0  0  0  0  0  0  0  0  0  0  0  0
  -13.2709    0.0757    0.0697 H   0  0  0  0  0  0  0  0  0  0  0  0
   -8.3854   -2.7192    2.5826 H   0  0  0  0  0  0  0  0  0  0  0  0
   -8.8178   -3.4370    1.0354 H   0  0  0  0  0  0  0  0  0  0  0  0
  -10.0486   -2.8950    2.1763 H   0  0  0  0  0  0  0  0  0  0  0  0
   -9.7841    0.7500    1.5468 H   0  0  0  0  0  0  0  0  0  0  0  0
   -8.9027    0.0097    2.8747 H   0  0  0  0  0  0  0  0  0  0  0  0
  -10.5083   -0.5258    2.5377 H   0  0  0  0  0  0  0  0  0  0  0  0
   -5.6041   -0.8804    3.4351 H   0  0  0  0  0  0  0  0  0  0  0  0
   -6.2937   -2.2517    2.5823 H   0  0  0  0  0  0  0  0  0  0  0  0
   -7.3034   -1.0271    3.3509 H   0  0  0  0  0  0  0  0  0  0  0  0
   -6.1091    1.7302    0.9715 H   0  0  0  0  0  0  0  0  0  0  0  0
   -6.4794    1.4173    2.6797 H   0  0  0  0  0  0  0  0  0  0  0  0
   -7.7268    1.3860    1.4564 H   0  0  0  0  0  0  0  0  0  0  0  0
   -2.5232   -2.2386    1.9907 H   0  0  0  0  0  0  0  0  0  0  0  0
   -4.2179   -2.4146    2.1277 H   0  0  0  0  0  0  0  0  0  0  0  0
   -3.3568   -1.5018    3.3688 H   0  0  0  0  0  0  0  0  0  0  0  0
   -4.0424    1.7432    1.7959 H   0  0  0  0  0  0  0  0  0  0  0  0
   -2.8832    1.1371    2.9504 H   0  0  0  0  0  0  0  0  0  0  0  0
   -4.5166    0.7368    3.1662 H   0  0  0  0  0  0  0  0  0  0  0  0
    0.1197   -0.0182    3.1121 H   0  0  0  0  0  0  0  0  0  0  0  0
   -0.6344   -1.4278    2.4068 H   0  0  0  0  0  0  0  0  0  0  0  0
   -1.5526   -0.1985    3.2492 H   0  0  0  0  0  0  0  0  0  0  0  0
   -0.4354    2.4511    0.6561 H   0  0  0  0  0  0  0  0  0  0  0  0
   -0.9997    2.2479    2.3237 H   0  0  0  0  0  0  0  0  0  0  0  0
   -2.1063    2.2298    0.9516 H   0  0  0  0  0  0  0  0  0  0  0  0
    1.2990   -1.7486    1.6631 H   0  0  0  0  0  0  0  0  0  0  0  0
    2.1651   -0.8226    2.8969 H   0  0  0  0  0  0  0  0  0  0  0  0
    2.9856   -1.5502    1.5092 H   0  0  0  0  0  0  0  0  0  0  0  0
    1.0385    1.5632    2.6572 H   0  0  0  0  0  0  0  0  0  0  0  0
    1.5972    2.4516    1.2563 H   0  0  0  0  0  0  0  0  0  0  0  0
    2.6951    1.7949    2.4461 H   0  0  0  0  0  0  0  0  0  0  0  0
    4.9034   -0.7884    1.9047 H   0  0  0  0  0  0  0  0  0  0  0  0
    3.9810    0.4325    2.7515 H   0  0  0  0  0  0  0  0  0  0  0  0
    5.6477    0.6503    2.5714 H   0  0  0  0  0  0  0  0  0  0  0  0
    3.4631    2.8926    0.4104 H   0  0  0  0  0  0  0  0  0  0  0  0
    5.1365    3.0434    0.1137 H   0  0  0  0  0  0  0  0  0  0  0  0
    4.5725    2.8803    1.7848 H   0  0  0  0  0  0  0  0  0  0  0  0
    6.8504   -1.1526    1.1671 H   0  0  0  0  0  0  0  0  0  0  0  0
    7.7237   -0.1562    2.3426 H   0  0  0  0  0  0  0  0  0  0  0  0
    8.5337   -0.9130    0.9694 H   0  0  0  0  0  0  0  0  0  0  0  0
    6.6788    2.1954    2.0921 H   0  0  0  0  0  0  0  0  0  0  0  0
    7.1663    3.0435    0.6344 H   0  0  0  0  0  0  0  0  0  0  0  0
    8.3376    2.3641    1.7415 H   0  0  0  0  0  0  0  0  0  0  0  0
   10.5767   -0.2473    1.0558 H   0  0  0  0  0  0  0  0  0  0  0  0
    9.7265    1.0189    1.9224 H   0  0  0  0  0  0  0  0  0  0  0  0
   11.3582    1.2806    1.4720 H   0  0  0  0  0  0  0  0  0  0  0  0
    9.0992    3.4309   -0.0815 H   0  0  0  0  0  0  0  0  0  0  0  0
   10.4059    3.3490   -1.2117 H   0  0  0  0  0  0  0  0  0  0  0  0
   10.7302    3.3429    0.5297 H   0  0  0  0  0  0  0  0  0  0  0  0
   12.7573   -1.1431   -0.6814 H   0  0  0  0  0  0  0  0  0  0  0  0
   12.7889   -0.0864    0.7319 H   0  0  0  0  0  0  0  0  0  0  0  0
   14.1976   -0.2242   -0.2541 H   0  0  0  0  0  0  0  0  0  0  0  0
   12.6905    2.4753    0.4202 H   0  0  0  0  0  0  0  0  0  0  0  0
   12.7867    3.1646   -1.2082 H   0  0  0  0  0  0  0  0  0  0  0  0
   14.1626    2.3375   -0.4591 H   0  0  0  0  0  0  0  0  0  0  0  0
   12.5975    1.3819   -3.3412 H   0  0  0  0  0  0  0  0  0  0  0  0
   13.0529   -0.2462   -2.9255 H   0  0  0  0  0  0  0  0  0  0  0  0
   14.6876    1.1459   -3.0038 C   0  0  0  0  0  0  0  0  0  0  0  0
   15.7667    0.5221   -2.1244 C   0  0  0  0  0  0  0  0  0  0  0  0
   14.9466    2.6451   -3.1894 C   0  0  0  0  0  0  0  0  0  0  0  0
   14.8321    0.7082   -4.0026 H   0  0  0  0  0  0  0  0  0  0  0  0
   15.6122   -0.5558   -2.0165 H   0  0  0  0  0  0  0  0  0  0  0  0
   15.8090    0.9782   -1.1316 H   0  0  0  0  0  0  0  0  0  0  0  0
   16.7551    0.6636   -2.5768 H   0  0  0  0  0  0  0  0  0  0  0  0
   15.0187    3.1848   -2.2428 H   0  0  0  0  0  0  0  0  0  0  0  0
   14.1610    3.1106   -3.7927 H   0  0  0  0  0  0  0  0  0  0  0  0
   15.8976    2.8006   -3.7119 H   0  0  0  0  0  0  0  0  0  0  0  0
  1  2  1  0  0  0  0
  1  4  1  0  0  0  0
  1 21  1  0  0  0  0
  1 22  1  0  0  0  0
  2  3  1  0  0  0  0
  2 23  1  0  0  0  0
  2 24  1  0  0  0  0
  3  5  1  0  0  0  0
  3 25  1  0  0  0  0
  3 26  1  0  0  0  0
  4  6  1  0  0  0  0
  4 27  1  0  0  0  0
  4 28  1  0  0  0  0
  5  7  1  0  0  0  0
  5 29  1  0  0  0  0
  5 30  1  0  0  0  0
  6  8  1  0  0  0  0
  6 31  1  0  0  0  0
  6 32  1  0  0  0  0
  7  9  1  0  0  0  0
  7 33  1  0  0  0  0
  7 34  1  0  0  0  0
  8 10  1  0  0  0  0
  8 35  1  0  0  0  0
  8 36  1  0  0  0  0
  9 11  1  0  0  0  0
  9 37  1  0  0  0  0
  9 38  1  0  0  0  0
 10 12  1  0  0  0  0
 10 39  1  0  0  0  0
 10 40  1  0  0  0  0
 11 13  1  0  0  0  0
 11 41  1  0  0  0  0
 11 42  1  0  0  0  0
 12 14  1  0  0  0  0
 12 43  1  0  0  0  0
 12 44  1  0  0  0  0
 13 15  1  0  0  0  0
 13 45  1  0  0  0  0
 13 46  1  0  0  0  0
 14 16  1  0  0  0  0
 14 47  1  0  0  0  0
 14 48  1  0  0  0  0
 15 17  1  0  0  0  0
 15 49  1  0  0  0  0
 15 50  1  0  0  0  0
 16 18  1  0  0  0  0
 16 51  1  0  0  0  0
 16 52  1  0  0  0  0
 17 19  1  0  0  0  0
 17 53  1  0  0  0  0
 17 54  1  0  0  0  0
 18 20  1  0  0  0  0
 18 55  1  0  0  0  0
 18 56  1  0  0  0  0
 19 57  1  0  0  0  0
 19 58  1  0  0  0  0
 19 59  1  0  0  0  0
 20 60  1  0  0  0  0
 20 61  1  0  0  0  0
 20 62  1  0  0  0  0
 63 53  1  0  0  0  0
 64 53  1  0  0  0  0
 65 53  1  0  0  0  0
 66 54  1  0  0  0  0
 67 54  1  0  0  0  0
 68 54  1  0  0  0  0
 69 45  1  0  0  0  0
 70 45  1  0  0  0  0
 71 45  1  0  0  0  0
 72 46  1  0  0  0  0
 73 46  1  0  0  0  0
 74 46  1  0  0  0  0
 75 37  1  0  0  0  0
 76 37  1  0  0  0  0
 77 37  1  0  0  0  0
 78 38  1  0  0  0  0
 79 38  1  0  0  0  0
 80 38  1  0  0  0  0
 81 29  1  0  0  0  0
 82 29  1  0  0  0  0
 83 29  1  0  0  0  0
 84 30  1  0  0  0  0
 85 30  1  0  0  0  0
 86 30  1  0  0  0  0
 87 23  1  0  0  0  0
 88 23  1  0  0  0  0
 89 23  1  0  0  0  0
 90 24  1  0  0  0  0
 91 24  1  0  0  0  0
 92 24  1  0  0  0  0
 93 28  1  0  0  0  0
 94 28  1  0  0  0  0
 95 28  1  0  0  0  0
 96 27  1  0  0  0  0
 97 27  1  0  0  0  0
 98 27  1  0  0  0  0
 99 36  1  0  0  0  0
100 36  1  0  0  0  0
101 36  1  0  0  0  0
102 35  1  0  0  0  0
103 35  1  0  0  0  0
104 35  1  0  0  0  0
105 44  1  0  0  0  0
106 44  1  0  0  0  0
107 44  1  0  0  0  0
108 43  1  0  0  0  0
109 43  1  0  0  0  0
110 43  1  0  0  0  0
111 52  1  0  0  0  0
112 52  1  0  0  0  0
113 52  1  0  0  0  0
114 51  1  0  0  0  0
115 51  1  0  0  0  0
116 51  1  0  0  0  0
117 61  1  0  0  0  0
118 61  1  0  0  0  0
119 61  1  0  0  0  0
120 60  1  0  0  0  0
121 60  1  0  0  0  0
122 60  1  0  0  0  0
123 62  1  0  0  0  0
124 62  1  0  0  0  0
125 62  1  0  0  0  0
126125  1  0  0  0  0
127125  1  0  0  0  0
128125  1  0  0  0  0
129126  1  0  0  0  0
130126  1  0  0  0  0
131126  1  0  0  0  0
132127  1  0  0  0  0
133127  1  0  0  0  0
134127  1  0  0  0  0
M  END
