
 OpenBabel06181211203D

142146  0  0  0  0  0  0  0  0999 V2000
    0.5445    0.9591    0.6115 C   0  0  0  0  0  0  0  0  0  0  0  0
    0.4432    0.3182   -0.7741 C   0  0  0  0  0  0  0  0  0  0  0  0
    1.5742   -0.7686   -0.9566 C   0  0  0  0  0  0  0  0  0  0  0  0
   -0.9525   -0.4058   -0.9813 C   0  0  0  0  0  0  0  0  0  0  0  0
    0.5880    1.3291   -1.9288 C   0  0  0  0  0  0  0  0  0  0  0  0
    0.5764    1.0113   -3.1122 O   0  0  0  0  0  0  0  0  0  0  0  0
    1.2509   -1.6732   -0.4217 H   0  0  0  0  0  0  0  0  0  0  0  0
    3.0505   -0.4841   -0.5085 C   0  0  0  0  0  0  0  0  0  0  0  0
    1.5954   -1.0613   -2.0164 H   0  0  0  0  0  0  0  0  0  0  0  0
    1.4599    1.5401    0.7150 H   0  0  0  0  0  0  0  0  0  0  0  0
    0.5079    0.2033    1.4009 H   0  0  0  0  0  0  0  0  0  0  0  0
   -0.2356    1.6888    0.8161 H   0  0  0  0  0  0  0  0  0  0  0  0
   -2.3072    0.2782   -0.5284 C   0  0  0  0  0  0  0  0  0  0  0  0
   -0.8995   -1.3833   -0.4814 H   0  0  0  0  0  0  0  0  0  0  0  0
   -1.0420   -0.6478   -2.0500 H   0  0  0  0  0  0  0  0  0  0  0  0
   -2.3551    1.7392   -0.9807 C   0  0  0  0  0  0  0  0  0  0  0  0
   -2.4190    0.0461    0.9903 C   0  0  0  0  0  0  0  0  0  0  0  0
   -3.5008   -0.5261   -1.1852 C   0  0  0  0  0  0  0  0  0  0  0  0
   -2.2436    1.8098   -2.0671 H   0  0  0  0  0  0  0  0  0  0  0  0
   -1.5875    2.3562   -0.5193 H   0  0  0  0  0  0  0  0  0  0  0  0
   -3.2771    2.2454   -0.7060 H   0  0  0  0  0  0  0  0  0  0  0  0
   -2.4762   -1.0707    1.4931 O   0  0  0  0  0  0  0  0  0  0  0  0
   -3.4476   -1.5515   -0.7926 H   0  0  0  0  0  0  0  0  0  0  0  0
   -3.2782   -0.6323   -2.2569 H   0  0  0  0  0  0  0  0  0  0  0  0
   -5.0029   -0.0302   -1.0565 C   0  0  0  0  0  0  0  0  0  0  0  0
   -5.2675    0.9144   -2.2476 C   0  0  0  0  0  0  0  0  0  0  0  0
   -5.3038    0.6204    0.2956 C   0  0  0  0  0  0  0  0  0  0  0  0
   -5.9273   -1.2956   -1.2326 C   0  0  0  0  0  0  0  0  0  0  0  0
   -4.6625    1.4674    0.5316 H   0  0  0  0  0  0  0  0  0  0  0  0
   -5.2051   -0.1098    1.1024 H   0  0  0  0  0  0  0  0  0  0  0  0
   -6.3053    1.0509    0.3238 H   0  0  0  0  0  0  0  0  0  0  0  0
   -5.3168    0.5419   -3.4135 O   0  0  0  0  0  0  0  0  0  0  0  0
   -5.5362   -2.0912   -0.5826 H   0  0  0  0  0  0  0  0  0  0  0  0
   -5.7978   -1.6733   -2.2569 H   0  0  0  0  0  0  0  0  0  0  0  0
   -7.4543   -1.2180   -0.9677 C   0  0  0  0  0  0  0  0  0  0  0  0
   -8.1867   -0.0575   -1.6337 C   0  0  0  0  0  0  0  0  0  0  0  0
   -7.7930   -1.3995    0.5129 C   0  0  0  0  0  0  0  0  0  0  0  0
   -7.8842   -2.1199   -1.4308 H   0  0  0  0  0  0  0  0  0  0  0  0
   -8.0158   -0.0595   -2.7149 H   0  0  0  0  0  0  0  0  0  0  0  0
   -7.8882    0.9167   -1.2391 H   0  0  0  0  0  0  0  0  0  0  0  0
   -9.2670   -0.1463   -1.4708 H   0  0  0  0  0  0  0  0  0  0  0  0
   -7.7198   -2.4775    1.0890 O   0  0  0  0  0  0  0  0  0  0  0  0
   -8.1213   -0.2259    1.1131 O   0  0  0  0  0  0  0  0  0  0  0  0
   -8.3642   -0.2445    2.5365 C   0  0  0  0  0  0  0  0  0  0  0  0
   -2.4676    1.2015    1.7042 O   0  0  0  0  0  0  0  0  0  0  0  0
   -2.6422    1.0459    3.1265 C   0  0  0  0  0  0  0  0  0  0  0  0
    0.6594    2.6133   -1.4867 O   0  0  0  0  0  0  0  0  0  0  0  0
    0.5296    3.6389   -2.4881 C   0  0  0  0  0  0  0  0  0  0  0  0
   -0.1851    3.3214   -3.2598 H   0  0  0  0  0  0  0  0  0  0  0  0
    1.8877    3.9458   -3.1207 C   0  0  0  0  0  0  0  0  0  0  0  0
   -0.0407    4.8803   -1.7961 C   0  0  0  0  0  0  0  0  0  0  0  0
   -0.1392    6.0625   -2.7530 C   0  0  0  0  0  0  0  0  0  0  0  0
    2.2675    3.0641   -3.6493 H   0  0  0  0  0  0  0  0  0  0  0  0
    2.6227    4.1598   -2.3340 H   0  0  0  0  0  0  0  0  0  0  0  0
    1.7950    5.1250   -4.0852 C   0  0  0  0  0  0  0  0  0  0  0  0
    1.1696    4.8453   -4.9422 H   0  0  0  0  0  0  0  0  0  0  0  0
    2.7900    5.3595   -4.4791 H   0  0  0  0  0  0  0  0  0  0  0  0
   -0.8857    5.8439   -3.5267 H   0  0  0  0  0  0  0  0  0  0  0  0
    1.2049    6.3617   -3.4113 C   0  0  0  0  0  0  0  0  0  0  0  0
   -0.4909    6.9478   -2.2115 H   0  0  0  0  0  0  0  0  0  0  0  0
    1.9062    6.7308   -2.6528 H   0  0  0  0  0  0  0  0  0  0  0  0
    1.0829    7.1620   -4.1498 H   0  0  0  0  0  0  0  0  0  0  0  0
    0.5869    5.1457   -0.9351 H   0  0  0  0  0  0  0  0  0  0  0  0
   -1.0302    4.6531   -1.3819 H   0  0  0  0  0  0  0  0  0  0  0  0
   -5.3983    2.2098   -1.8565 O   0  0  0  0  0  0  0  0  0  0  0  0
   -5.5667    3.1969   -2.8940 C   0  0  0  0  0  0  0  0  0  0  0  0
   -6.2888    2.8351   -3.6375 H   0  0  0  0  0  0  0  0  0  0  0  0
   -4.2201    3.5104   -3.5581 C   0  0  0  0  0  0  0  0  0  0  0  0
   -6.1349    4.4516   -2.2235 C   0  0  0  0  0  0  0  0  0  0  0  0
   -5.5049    4.7284   -1.3674 H   0  0  0  0  0  0  0  0  0  0  0  0
   -7.1226    4.2287   -1.8021 H   0  0  0  0  0  0  0  0  0  0  0  0
   -6.2325    5.6264   -3.1910 C   0  0  0  0  0  0  0  0  0  0  0  0
   -3.8340    2.6257   -4.0765 H   0  0  0  0  0  0  0  0  0  0  0  0
   -3.4778    3.7527   -2.7875 H   0  0  0  0  0  0  0  0  0  0  0  0
   -4.3247    4.6733   -4.5380 C   0  0  0  0  0  0  0  0  0  0  0  0
   -4.8928    5.9170   -3.8619 C   0  0  0  0  0  0  0  0  0  0  0  0
   -4.9658    4.3868   -5.3805 H   0  0  0  0  0  0  0  0  0  0  0  0
   -3.3343    4.8980   -4.9500 H   0  0  0  0  0  0  0  0  0  0  0  0
   -6.9842    5.4051   -3.9583 H   0  0  0  0  0  0  0  0  0  0  0  0
   -6.5756    6.5180   -2.6543 H   0  0  0  0  0  0  0  0  0  0  0  0
   -5.0143    6.7169   -4.6007 H   0  0  0  0  0  0  0  0  0  0  0  0
   -4.1798    6.2807   -3.1112 H   0  0  0  0  0  0  0  0  0  0  0  0
   -1.3018    0.7324    3.8002 C   0  0  0  0  0  0  0  0  0  0  0  0
   -3.3658    0.2441    3.3280 H   0  0  0  0  0  0  0  0  0  0  0  0
   -3.2237    2.3546    3.6654 C   0  0  0  0  0  0  0  0  0  0  0  0
   -7.0548   -0.4024    3.3223 C   0  0  0  0  0  0  0  0  0  0  0  0
   -9.0597   -1.0589    2.7763 H   0  0  0  0  0  0  0  0  0  0  0  0
   -9.0239    1.0962    2.8818 C   0  0  0  0  0  0  0  0  0  0  0  0
   -0.5568    1.4836    3.5082 H   0  0  0  0  0  0  0  0  0  0  0  0
   -0.9106   -0.2274    3.4445 H   0  0  0  0  0  0  0  0  0  0  0  0
   -1.4323    0.6951    5.3189 C   0  0  0  0  0  0  0  0  0  0  0  0
   -4.2018    2.5407    3.2053 H   0  0  0  0  0  0  0  0  0  0  0  0
   -2.5869    3.1958    3.3618 H   0  0  0  0  0  0  0  0  0  0  0  0
   -3.3585    2.3254    5.1845 C   0  0  0  0  0  0  0  0  0  0  0  0
   -2.0669   -0.1513    5.6095 H   0  0  0  0  0  0  0  0  0  0  0  0
   -0.4480    0.5259    5.7699 H   0  0  0  0  0  0  0  0  0  0  0  0
   -2.0313    1.9896    5.8607 C   0  0  0  0  0  0  0  0  0  0  0  0
   -4.1116    1.5800    5.4689 H   0  0  0  0  0  0  0  0  0  0  0  0
   -3.7189    3.2962    5.5421 H   0  0  0  0  0  0  0  0  0  0  0  0
   -2.1800    1.9021    6.9428 H   0  0  0  0  0  0  0  0  0  0  0  0
   -1.3228    2.8117    5.7005 H   0  0  0  0  0  0  0  0  0  0  0  0
   -9.9869    1.1778    2.3635 H   0  0  0  0  0  0  0  0  0  0  0  0
   -8.4089    1.9178    2.4897 H   0  0  0  0  0  0  0  0  0  0  0  0
   -9.2223    1.2784    4.3831 C   0  0  0  0  0  0  0  0  0  0  0  0
   -6.3320    0.3512    2.9885 H   0  0  0  0  0  0  0  0  0  0  0  0
   -6.5935   -1.3737    3.1140 H   0  0  0  0  0  0  0  0  0  0  0  0
   -7.2684   -0.2513    4.8242 C   0  0  0  0  0  0  0  0  0  0  0  0
   -7.9192    1.0878    5.1540 C   0  0  0  0  0  0  0  0  0  0  0  0
   -9.9669    0.5578    4.7420 H   0  0  0  0  0  0  0  0  0  0  0  0
   -9.6228    2.2788    4.5825 H   0  0  0  0  0  0  0  0  0  0  0  0
   -7.8998   -1.0695    5.1909 H   0  0  0  0  0  0  0  0  0  0  0  0
   -6.3061   -0.3302    5.3429 H   0  0  0  0  0  0  0  0  0  0  0  0
   -8.1123    1.1508    6.2307 H   0  0  0  0  0  0  0  0  0  0  0  0
   -7.2250    1.9007    4.9060 H   0  0  0  0  0  0  0  0  0  0  0  0
    3.1425   -0.5525    1.0274 C   0  0  0  0  0  0  0  0  0  0  0  0
    3.6161    0.8127   -1.1055 C   0  0  0  0  0  0  0  0  0  0  0  0
    3.9374   -1.6417   -1.0241 C   0  0  0  0  0  0  0  0  0  0  0  0
    3.9601   -1.6681   -2.1194 H   0  0  0  0  0  0  0  0  0  0  0  0
    3.5717   -2.6147   -0.6758 H   0  0  0  0  0  0  0  0  0  0  0  0
    4.9693   -1.5376   -0.6679 H   0  0  0  0  0  0  0  0  0  0  0  0
    3.1174    1.7074   -0.7256 H   0  0  0  0  0  0  0  0  0  0  0  0
    3.5274    0.8160   -2.1975 H   0  0  0  0  0  0  0  0  0  0  0  0
    4.6795    0.9252   -0.8617 H   0  0  0  0  0  0  0  0  0  0  0  0
    2.8244   -1.5425    1.6764 O   0  0  0  0  0  0  0  0  0  0  0  0
    3.5230    0.6318    1.5820 O   0  0  0  0  0  0  0  0  0  0  0  0
    3.3026    0.7633    3.0003 C   0  0  0  0  0  0  0  0  0  0  0  0
    4.5420    0.3206    3.7769 C   0  0  0  0  0  0  0  0  0  0  0  0
    2.4342    0.1644    3.3071 H   0  0  0  0  0  0  0  0  0  0  0  0
    2.9805    2.2335    3.2888 C   0  0  0  0  0  0  0  0  0  0  0  0
    5.4235    0.8593    3.4063 H   0  0  0  0  0  0  0  0  0  0  0  0
    4.7422   -0.7412    3.5931 H   0  0  0  0  0  0  0  0  0  0  0  0
    4.3718    0.5653    5.2747 C   0  0  0  0  0  0  0  0  0  0  0  0
    2.0718    2.5306    2.7530 H   0  0  0  0  0  0  0  0  0  0  0  0
    3.7800    2.8739    2.8943 H   0  0  0  0  0  0  0  0  0  0  0  0
    2.7977    2.4832    4.7815 C   0  0  0  0  0  0  0  0  0  0  0  0
    3.5812   -0.0896    5.6618 H   0  0  0  0  0  0  0  0  0  0  0  0
    4.0144    2.0194    5.5769 C   0  0  0  0  0  0  0  0  0  0  0  0
    5.2947    0.2968    5.8005 H   0  0  0  0  0  0  0  0  0  0  0  0
    1.9051    1.9513    5.1337 H   0  0  0  0  0  0  0  0  0  0  0  0
    2.6231    3.5503    4.9596 H   0  0  0  0  0  0  0  0  0  0  0  0
    4.8706    2.6614    5.3361 H   0  0  0  0  0  0  0  0  0  0  0  0
    3.8190    2.1367    6.6489 H   0  0  0  0  0  0  0  0  0  0  0  0
  1  2  1  0  0  0  0
  2  3  1  0  0  0  0
  2  4  1  0  0  0  0
  2  5  1  0  0  0  0
  6  5  2  0  0  0  0
  7  3  1  0  0  0  0
  8  3  1  0  0  0  0
  9  3  1  0  0  0  0
 10  1  1  0  0  0  0
 11  1  1  0  0  0  0
 12  1  1  0  0  0  0
 13  4  1  0  0  0  0
 14  4  1  0  0  0  0
 15  4  1  0  0  0  0
 16 13  1  0  0  0  0
 17 13  1  0  0  0  0
 18 13  1  0  0  0  0
 19 16  1  0  0  0  0
 20 16  1  0  0  0  0
 21 16  1  0  0  0  0
 22 17  2  0  0  0  0
 23 18  1  0  0  0  0
 24 18  1  0  0  0  0
 25 18  1  0  0  0  0
 26 25  1  0  0  0  0
 27 25  1  0  0  0  0
 28 25  1  0  0  0  0
 29 27  1  0  0  0  0
 30 27  1  0  0  0  0
 31 27  1  0  0  0  0
 32 26  2  0  0  0  0
 33 28  1  0  0  0  0
 34 28  1  0  0  0  0
 35 28  1  0  0  0  0
 36 35  1  0  0  0  0
 37 35  1  0  0  0  0
 38 35  1  0  0  0  0
 39 36  1  0  0  0  0
 40 36  1  0  0  0  0
 41 36  1  0  0  0  0
 42 37  2  0  0  0  0
 43 37  1  0  0  0  0
 44 43  1  0  0  0  0
 45 17  1  0  0  0  0
 46 45  1  0  0  0  0
 47  5  1  0  0  0  0
 48 47  1  0  0  0  0
 49 48  1  0  0  0  0
 50 48  1  0  0  0  0
 51 48  1  0  0  0  0
 52 51  1  0  0  0  0
 53 50  1  0  0  0  0
 54 50  1  0  0  0  0
 55 50  1  0  0  0  0
 56 55  1  0  0  0  0
 57 55  1  0  0  0  0
 58 52  1  0  0  0  0
 59 52  1  0  0  0  0
 59 55  1  0  0  0  0
 60 52  1  0  0  0  0
 61 59  1  0  0  0  0
 62 59  1  0  0  0  0
 63 51  1  0  0  0  0
 64 51  1  0  0  0  0
 65 26  1  0  0  0  0
 66 65  1  0  0  0  0
 67 66  1  0  0  0  0
 68 66  1  0  0  0  0
 69 66  1  0  0  0  0
 70 69  1  0  0  0  0
 71 69  1  0  0  0  0
 72 69  1  0  0  0  0
 73 68  1  0  0  0  0
 74 68  1  0  0  0  0
 75 68  1  0  0  0  0
 76 75  1  0  0  0  0
 76 72  1  0  0  0  0
 77 75  1  0  0  0  0
 78 75  1  0  0  0  0
 79 72  1  0  0  0  0
 80 72  1  0  0  0  0
 81 76  1  0  0  0  0
 82 76  1  0  0  0  0
 83 46  1  0  0  0  0
 84 46  1  0  0  0  0
 85 46  1  0  0  0  0
 86 44  1  0  0  0  0
 87 44  1  0  0  0  0
 88 44  1  0  0  0  0
 89 83  1  0  0  0  0
 90 83  1  0  0  0  0
 91 83  1  0  0  0  0
 92 85  1  0  0  0  0
 93 85  1  0  0  0  0
 94 85  1  0  0  0  0
 95 91  1  0  0  0  0
 96 91  1  0  0  0  0
 97 94  1  0  0  0  0
 97 91  1  0  0  0  0
 98 94  1  0  0  0  0
 99 94  1  0  0  0  0
100 97  1  0  0  0  0
101 97  1  0  0  0  0
102 88  1  0  0  0  0
103 88  1  0  0  0  0
104 88  1  0  0  0  0
105 86  1  0  0  0  0
106 86  1  0  0  0  0
107 86  1  0  0  0  0
108104  1  0  0  0  0
108107  1  0  0  0  0
109104  1  0  0  0  0
110104  1  0  0  0  0
111107  1  0  0  0  0
112107  1  0  0  0  0
113108  1  0  0  0  0
114108  1  0  0  0  0
115  8  1  0  0  0  0
116  8  1  0  0  0  0
117  8  1  0  0  0  0
118117  1  0  0  0  0
119117  1  0  0  0  0
120117  1  0  0  0  0
121116  1  0  0  0  0
122116  1  0  0  0  0
123116  1  0  0  0  0
124115  2  0  0  0  0
125115  1  0  0  0  0
126125  1  0  0  0  0
127126  1  0  0  0  0
128126  1  0  0  0  0
129126  1  0  0  0  0
130127  1  0  0  0  0
131127  1  0  0  0  0
132127  1  0  0  0  0
133129  1  0  0  0  0
134129  1  0  0  0  0
135129  1  0  0  0  0
136132  1  0  0  0  0
137132  1  0  0  0  0
137135  1  0  0  0  0
138132  1  0  0  0  0
139135  1  0  0  0  0
140135  1  0  0  0  0
141137  1  0  0  0  0
142137  1  0  0  0  0
M  END
