file:/home/renata/Renata/MOLFILES/PPO/POLY_PPO23.mol
__Jmol-12_06251315043D 1   1.00000     0.00000     0
Jmol version 12.3.28  2012-05-30 15:29 EXTRACT: ({0:217 226:239})
232231  0  0  0  0              1 V2000
   0.21995   0.35975  -0.35868 C   0  0  0  0  0  0
   1.51786  -0.23415  -0.96148 C   0  0  0  0  0  0
   1.39041  -0.41545  -2.06282 H   0  0  0  0  0  0
   1.88969  -1.53925  -0.24455 C   0  0  0  0  0  0
   2.49231   0.74901  -0.67326 O   0  0  0  0  0  0
   3.59147   0.73574  -1.56019 C   0  0  0  0  0  0
   1.09900  -2.29526  -0.35833 H   0  0  0  0  0  0
   2.04501  -1.38836   0.83545 H   0  0  0  0  0  0
   2.81525  -1.98334  -0.64078 H   0  0  0  0  0  0
   3.29256   1.06975  -2.57991 H   0  0  0  0  0  0
   4.03724  -0.27994  -1.67760 H   0  0  0  0  0  0
   4.60974   1.71423  -0.90672 C   0  0  0  0  0  0
   4.80595   1.40916   0.15664 H   0  0  0  0  0  0
   4.08460   3.15520  -0.96822 C   0  0  0  0  0  0
   5.75267   1.60300  -1.73451 O   0  0  0  0  0  0
   3.13387   3.25669  -0.42489 H   0  0  0  0  0  0
   3.90658   3.48645  -2.00356 H   0  0  0  0  0  0
   4.78857   3.87211  -0.51942 H   0  0  0  0  0  0
   6.96191   1.88601  -1.06087 C   0  0  0  0  0  0
   7.16231   1.15102  -0.24761 H   0  0  0  0  0  0
   6.95087   2.89391  -0.58271 H   0  0  0  0  0  0
   8.04545   1.81306  -2.17556 C   0  0  0  0  0  0
   7.77717   2.50074  -3.02205 H   0  0  0  0  0  0
   8.20280   0.37088  -2.67603 C   0  0  0  0  0  0
   9.22402   2.20810  -1.49891 O   0  0  0  0  0  0
   7.25841  -0.01320  -3.08877 H   0  0  0  0  0  0
   8.50981  -0.31496  -1.87081 H   0  0  0  0  0  0
   8.95573   0.28683  -3.47403 H   0  0  0  0  0  0
  10.22829   2.71431  -2.35350 C   0  0  0  0  0  0
  -0.80040  -0.52653  -0.76279 O   0  0  0  0  0  0
   0.01957   1.37720  -0.77186 H   0  0  0  0  0  0
   0.30805   0.48157   0.74608 H   0  0  0  0  0  0
   9.89049   3.62407  -2.90093 H   0  0  0  0  0  0
  10.53324   1.97219  -3.12818 H   0  0  0  0  0  0
  11.40939   3.03247  -1.39103 C   0  0  0  0  0  0
  11.66019   2.12718  -0.77495 H   0  0  0  0  0  0
  11.05559   4.22185  -0.48798 C   0  0  0  0  0  0
  12.45384   3.40029  -2.27208 O   0  0  0  0  0  0
  10.15216   4.01721   0.10514 H   0  0  0  0  0  0
  10.86438   5.13877  -1.06767 H   0  0  0  0  0  0
  11.85796   4.45536   0.22796 H   0  0  0  0  0  0
  13.74114   3.26794  -1.70637 C   0  0  0  0  0  0
  -1.93911  -0.51436   0.07580 C   0  0  0  0  0  0
  -2.65293   0.83582  -0.00152 C   0  0  0  0  0  0
  -1.66361  -0.75741   1.13980 H   0  0  0  0  0  0
  -2.82525  -1.64258  -0.52736 C   0  0  0  0  0  0
  -2.26267  -2.60078  -0.60461 H   0  0  0  0  0  0
  -3.15223  -1.38063  -1.56120 H   0  0  0  0  0  0
  -3.88105  -1.79102   0.39893 O   0  0  0  0  0  0
  -2.83301   1.15530  -1.03869 H   0  0  0  0  0  0
  -2.08061   1.63812   0.49072 H   0  0  0  0  0  0
  -3.63199   0.79774   0.50087 H   0  0  0  0  0  0
  13.94963   2.22506  -1.37380 H   0  0  0  0  0  0
  13.86911   3.91964  -0.81010 H   0  0  0  0  0  0
  14.70256   3.70126  -2.85156 C   0  0  0  0  0  0
  14.41136   4.71373  -3.24178 H   0  0  0  0  0  0
  14.69280   2.66020  -3.97850 C   0  0  0  0  0  0
  15.96387   3.71750  -2.20984 O   0  0  0  0  0  0
  13.67539   2.50216  -4.36558 H   0  0  0  0  0  0
  15.06879   1.68151  -3.64128 H   0  0  0  0  0  0
  15.31023   2.96695  -4.83616 H   0  0  0  0  0  0
  -5.08724  -2.25899  -0.17253 C   0  0  0  0  0  0
  -4.92525  -3.69716  -0.66593 C   0  0  0  0  0  0
  -5.42984  -1.58710  -1.00849 H   0  0  0  0  0  0
  -6.08522  -2.19118   1.01990 C   0  0  0  0  0  0
  -6.08394  -1.17863   1.48502 H   0  0  0  0  0  0
  -5.80068  -2.91214   1.82186 H   0  0  0  0  0  0
  -7.34183  -2.45326   0.43131 O   0  0  0  0  0  0
  -4.49816  -4.35776   0.10306 H   0  0  0  0  0  0
  -4.27028  -3.76286  -1.54926 H   0  0  0  0  0  0
  -5.89496  -4.12745  -0.96071 H   0  0  0  0  0  0
  16.97196   4.38007  -2.94472 C   0  0  0  0  0  0
  16.66191   5.39350  -3.28831 H   0  0  0  0  0  0
  17.25251   3.80500  -3.85813 H   0  0  0  0  0  0
  18.16541   4.46089  -1.94805 C   0  0  0  0  0  0
  18.39371   3.44251  -1.53192 H   0  0  0  0  0  0
  17.84811   5.44975  -0.81844 C   0  0  0  0  0  0
  19.21679   4.96208  -2.75073 O   0  0  0  0  0  0
  16.92549   5.16785  -0.29001 H   0  0  0  0  0  0
  17.70841   6.47582  -1.19376 H   0  0  0  0  0  0
  18.64477   5.48843  -0.06037 H   0  0  0  0  0  0
  -8.32355  -2.90132   1.34629 C   0  0  0  0  0  0
  -8.70688  -1.78030   2.31303 C   0  0  0  0  0  0
  -7.97427  -3.81054   1.91072 H   0  0  0  0  0  0
  -9.51669  -3.26761   0.41715 C   0  0  0  0  0  0
  -9.19617  -3.96767  -0.38780 H   0  0  0  0  0  0
  -9.92226  -2.36032  -0.09049 H   0  0  0  0  0  0
 -10.45492  -3.86545   1.28726 O   0  0  0  0  0  0
  -8.94207  -0.84061   1.79174 H   0  0  0  0  0  0
  -7.90398  -1.56027   3.03437 H   0  0  0  0  0  0
  -9.59351  -2.05135   2.90672 H   0  0  0  0  0  0
  20.49785   4.77938  -2.18536 C   0  0  0  0  0  0
  20.69287   3.72078  -1.89740 H   0  0  0  0  0  0
  20.62692   5.39021  -1.26108 H   0  0  0  0  0  0
  21.47342   5.24948  -3.30393 C   0  0  0  0  0  0
  21.20073   6.28321  -3.64902 H   0  0  0  0  0  0
  21.45277   4.26158  -4.47789 C   0  0  0  0  0  0
  22.73259   5.21078  -2.65870 O   0  0  0  0  0  0
  20.43751   4.15033  -4.88640 H   0  0  0  0  0  0
  21.79629   3.25822  -4.18064 H   0  0  0  0  0  0
  22.09275   4.58862  -5.31109 H   0  0  0  0  0  0
 -11.66407  -4.23480   0.65105 C   0  0  0  0  0  0
 -11.50135  -5.61427   0.00990 C   0  0  0  0  0  0
 -11.99656  -3.47927  -0.11418 H   0  0  0  0  0  0
 -12.68037  -4.28791   1.82964 C   0  0  0  0  0  0
 -12.68622  -3.32675   2.39274 H   0  0  0  0  0  0
 -12.40538  -5.08448   2.56034 H   0  0  0  0  0  0
 -13.92644  -4.49822   1.19911 O   0  0  0  0  0  0
 -11.11865  -6.36240   0.71997 H   0  0  0  0  0  0
 -10.80662  -5.59747  -0.84441 H   0  0  0  0  0  0
 -12.46295  -5.99116  -0.37141 H   0  0  0  0  0  0
  23.73876   5.94388  -3.32609 C   0  0  0  0  0  0
  23.44487   7.00269  -3.51072 H   0  0  0  0  0  0
  23.97830   5.50137  -4.32141 H   0  0  0  0  0  0
  24.96201   5.85447  -2.36716 C   0  0  0  0  0  0
  25.17557   4.78192  -2.10959 H   0  0  0  0  0  0
  24.70362   6.67568  -1.09693 C   0  0  0  0  0  0
  26.00200   6.44822  -3.12028 O   0  0  0  0  0  0
  23.80026   6.32745  -0.57477 H   0  0  0  0  0  0
  24.56101   7.74534  -1.31763 H   0  0  0  0  0  0
  25.53204   6.60280  -0.37648 H   0  0  0  0  0  0
 -14.93412  -4.98334   2.06541 C   0  0  0  0  0  0
 -15.37249  -3.88767   3.03807 C   0  0  0  0  0  0
 -14.59373  -5.89825   2.62608 H   0  0  0  0  0  0
 -16.08508  -5.34982   1.08387 C   0  0  0  0  0  0
 -15.72246  -6.03161   0.28110 H   0  0  0  0  0  0
 -16.48225  -4.43925   0.57587 H   0  0  0  0  0  0
 -17.04170  -5.98697   1.90452 O   0  0  0  0  0  0
 -15.60801  -2.94323   2.52555 H   0  0  0  0  0  0
 -14.59938  -3.66530   3.79038 H   0  0  0  0  0  0
 -16.27354  -4.18673   3.59567 H   0  0  0  0  0  0
  27.29522   6.11312  -2.66210 C   0  0  0  0  0  0
  27.46104   5.01187  -2.62402 H   0  0  0  0  0  0
  27.47976   6.49848  -1.63194 H   0  0  0  0  0  0
  28.24609   6.79290  -3.69033 C   0  0  0  0  0  0
  27.99920   7.88463  -3.78641 H   0  0  0  0  0  0
  28.14594   6.09158  -5.05154 C   0  0  0  0  0  0
  29.52640   6.57499  -3.12787 O   0  0  0  0  0  0
  27.11656   6.11948  -5.43835 H   0  0  0  0  0  0
  28.44456   5.03294  -4.99467 H   0  0  0  0  0  0
  28.78204   6.56533  -5.81427 H   0  0  0  0  0  0
  30.52508   7.43590  -3.63478 C   0  0  0  0  0  0
 -18.27429  -6.23754   1.25632 C   0  0  0  0  0  0
 -18.15511  -7.48504   0.37905 C   0  0  0  0  0  0
 -18.62186  -5.35661   0.64762 H   0  0  0  0  0  0
 -19.24848  -6.48604   2.44535 C   0  0  0  0  0  0
 -19.22344  -5.63556   3.16450 H   0  0  0  0  0  0
 -18.95601  -7.39765   3.01781 H   0  0  0  0  0  0
 -20.51823  -6.58072   1.83446 O   0  0  0  0  0  0
 -17.73836  -8.34295   0.92718 H   0  0  0  0  0  0
 -17.51051  -7.31823  -0.49812 H   0  0  0  0  0  0
 -19.13840  -7.79449  -0.00796 H   0  0  0  0  0  0
  30.26899   8.51098  -3.49290 H   0  0  0  0  0  0
  30.68454   7.28841  -4.72871 H   0  0  0  0  0  0
  31.79800   7.04568  -2.82853 C   0  0  0  0  0  0
  31.97019   5.93726  -2.89380 H   0  0  0  0  0  0
  31.66126   7.48546  -1.36472 C   0  0  0  0  0  0
  32.82139   7.79730  -3.45264 O   0  0  0  0  0  0
  30.77015   7.04251  -0.89635 H   0  0  0  0  0  0
  31.57119   8.57896  -1.26778 H   0  0  0  0  0  0
  32.52588   7.17861  -0.75709 H   0  0  0  0  0  0
 -21.50383  -7.18677   2.64845 C   0  0  0  0  0  0
 -21.93195  -6.23025   3.76204 C   0  0  0  0  0  0
 -21.14529  -8.16255   3.08093 H   0  0  0  0  0  0
 -22.67142  -7.43802   1.65022 C   0  0  0  0  0  0
 -22.31856  -8.00264   0.75727 H   0  0  0  0  0  0
 -23.08988  -6.47433   1.27460 H   0  0  0  0  0  0
 -23.60043  -8.19445   2.39799 O   0  0  0  0  0  0
 -22.21188  -5.23843   3.37709 H   0  0  0  0  0  0
 -21.13627  -6.07594   4.50765 H   0  0  0  0  0  0
 -22.80272  -6.62268   4.30975 H   0  0  0  0  0  0
  34.11238   7.25345  -3.27066 C   0  0  0  0  0  0
  34.18181   6.19499  -3.61183 H   0  0  0  0  0  0
  34.41146   7.26130  -2.19618 H   0  0  0  0  0  0
  35.03406   8.18019  -4.11463 C   0  0  0  0  0  0
  34.85722   9.25432  -3.83641 H   0  0  0  0  0  0
  34.78593   7.96471  -5.61332 C   0  0  0  0  0  0
  36.33543   7.73050  -3.79050 O   0  0  0  0  0  0
  33.73535   8.15781  -5.87515 H   0  0  0  0  0  0
  35.01663   6.93454  -5.92736 H   0  0  0  0  0  0
  35.40057   8.63497  -6.23312 H   0  0  0  0  0  0
 -24.86139  -8.33487   1.77141 C   0  0  0  0  0  0
 -24.79030  -9.41249   0.68879 C   0  0  0  0  0  0
 -25.22778  -7.36251   1.33747 H   0  0  0  0  0  0
 -25.78759  -8.78219   2.93989 C   0  0  0  0  0  0
 -25.70801  -8.08189   3.80261 H   0  0  0  0  0  0
 -25.49227  -9.78865   3.31972 H   0  0  0  0  0  0
 -27.08468  -8.74046   2.38509 O   0  0  0  0  0  0
 -24.38623 -10.36223   1.06951 H   0  0  0  0  0  0
 -24.15863  -9.11096  -0.16133 H   0  0  0  0  0  0
 -25.78960  -9.62661   0.27901 H   0  0  0  0  0  0
  37.32889   8.72694  -3.92192 C   0  0  0  0  0  0
  37.10869   9.63349  -3.31259 H   0  0  0  0  0  0
  37.42178   9.06991  -4.97949 H   0  0  0  0  0  0
  38.62997   8.02408  -3.44050 C   0  0  0  0  0  0
  38.77992   7.05529  -3.99168 H   0  0  0  0  0  0
  38.57326   7.77618  -1.92522 C   0  0  0  0  0  0
  39.64400   8.94603  -3.75187 O   0  0  0  0  0  0
  37.75962   7.08355  -1.66583 H   0  0  0  0  0  0
  38.40485   8.70517  -1.35833 H   0  0  0  0  0  0
  39.50755   7.33336  -1.54666 H   0  0  0  0  0  0
 -28.04570  -9.49325   3.10226 C   0  0  0  0  0  0
 -28.39968  -8.78236   4.41210 C   0  0  0  0  0  0
 -27.68005 -10.53772   3.31315 H   0  0  0  0  0  0
 -29.26049  -9.54141   2.16290 C   0  0  0  0  0  0
 -29.02721 -10.05481   1.21831 H   0  0  0  0  0  0
 -29.62529  -8.53510   1.90250 H   0  0  0  0  0  0
 -30.40195 -10.27739   2.79964 O   0  0  0  0  0  0
 -28.68679  -7.73276   4.25192 H   0  0  0  0  0  0
 -27.56403  -8.78421   5.12928 H   0  0  0  0  0  0
 -29.24511  -9.27595   4.91561 H   0  0  0  0  0  0
  40.94982   8.31905  -3.36228 C   0  0  0  0  0  0
  41.09053   7.38476  -3.92559 H   0  0  0  0  0  0
  40.94427   8.09993  -2.28434 H   0  0  0  0  0  0
  42.07148   9.26481  -3.67443 C   0  0  0  0  0  0
  41.93088  10.19911  -3.11112 H   0  0  0  0  0  0
  42.07921   9.56362  -5.14436 C   0  0  0  0  0  0
  43.37730   8.63783  -3.28485 O   0  0  0  0  0  0
 -31.56783 -10.30458   1.85623 C   0  0  0  0  0  0
 -31.16926 -11.00050   0.58862 C   0  0  0  0  0  0
 -31.87814  -9.27445   1.62696 H   0  0  0  0  0  0
 -32.70927 -11.04056   2.49297 C   0  0  0  0  0  0
 -33.00167 -10.53026   3.42255 H   0  0  0  0  0  0
 -32.39907 -12.07072   2.72223 H   0  0  0  0  0  0
 -33.56425 -11.06050   1.80114 H   0  0  0  0  0  0
 -30.85898 -12.03065   0.81778 H   0  0  0  0  0  0
 -30.33223 -10.46081   0.12157 H   0  0  0  0  0  0
 -32.02423 -11.02043  -0.10321 H   0  0  0  0  0  0
  44.12507   9.26833  -3.49295 H   0  0  0  0  0  0
  41.12167  10.02347  -5.43013 H   0  0  0  0  0  0
  42.21986   8.62938  -5.70776 H   0  0  0  0  0  0
  42.90176  10.25718  -5.37326 H   0  0  0  0  0  0
  1  2  1  0  0  0
  1 31  1  0  0  0
  2  3  1  0  0  0
  2  5  1  0  0  0
  4  2  1  0  0  0
  5  6  1  0  0  0
  6 10  1  0  0  0
  6 12  1  0  0  0
  7  4  1  0  0  0
  8  4  1  0  0  0
  9  4  1  0  0  0
 11  6  1  0  0  0
 12 13  1  0  0  0
 12 15  1  0  0  0
 12 14  1  0  0  0
 14 17  1  0  0  0
 14 18  1  0  0  0
 15 19  1  0  0  0
 16 14  1  0  0  0
 19 22  1  0  0  0
 19 21  1  0  0  0
 20 19  1  0  0  0
 22 25  1  0  0  0
 22 23  1  0  0  0
 24 28  1  0  0  0
 24 22  1  0  0  0
 25 29  1  0  0  0
 26 24  1  0  0  0
 27 24  1  0  0  0
 29 35  1  0  0  0
 29 33  1  0  0  0
 30  1  1  0  0  0
 32  1  1  0  0  0
 34 29  1  0  0  0
 35 36  1  0  0  0
 35 37  1  0  0  0
 35 38  1  0  0  0
 37 41  1  0  0  0
 37 40  1  0  0  0
 38 42  1  0  0  0
 39 37  1  0  0  0
 42 54  1  0  0  0
 42 55  1  0  0  0
 43 45  1  0  0  0
 43 30  1  0  0  0
 43 44  1  0  0  0
 44 50  1  0  0  0
 44 51  1  0  0  0
 46 48  1  0  0  0
 46 43  1  0  0  0
 47 46  1  0  0  0
 49 46  1  0  0  0
 52 44  1  0  0  0
 53 42  1  0  0  0
 55 58  1  0  0  0
 55 56  1  0  0  0
 57 61  1  0  0  0
 57 55  1  0  0  0
 58 72  1  0  0  0
 59 57  1  0  0  0
 60 57  1  0  0  0
 62 64  1  0  0  0
 62 49  1  0  0  0
 63 70  1  0  0  0
 63 62  1  0  0  0
 65 62  1  0  0  0
 65 66  1  0  0  0
 67 65  1  0  0  0
 68 65  1  0  0  0
 69 63  1  0  0  0
 71 63  1  0  0  0
 72 75  1  0  0  0
 72 73  1  0  0  0
 74 72  1  0  0  0
 75 76  1  0  0  0
 75 77  1  0  0  0
 75 78  1  0  0  0
 77 81  1  0  0  0
 77 80  1  0  0  0
 78 92  1  0  0  0
 79 77  1  0  0  0
 82 84  1  0  0  0
 82 83  1  0  0  0
 82 68  1  0  0  0
 83 90  1  0  0  0
 83 89  1  0  0  0
 85 82  1  0  0  0
 85 87  1  0  0  0
 86 85  1  0  0  0
 88 85  1  0  0  0
 91 83  1  0  0  0
 92 94  1  0  0  0
 92 95  1  0  0  0
 93 92  1  0  0  0
 95 98  1  0  0  0
 95 96  1  0  0  0
 97101  1  0  0  0
 97 95  1  0  0  0
 98112  1  0  0  0
 99 97  1  0  0  0
100 97  1  0  0  0
102 88  1  0  0  0
102104  1  0  0  0
103110  1  0  0  0
103102  1  0  0  0
105102  1  0  0  0
105106  1  0  0  0
107105  1  0  0  0
108105  1  0  0  0
109103  1  0  0  0
111103  1  0  0  0
112115  1  0  0  0
112113  1  0  0  0
114112  1  0  0  0
115116  1  0  0  0
115117  1  0  0  0
115118  1  0  0  0
117121  1  0  0  0
117120  1  0  0  0
118132  1  0  0  0
119117  1  0  0  0
122124  1  0  0  0
122123  1  0  0  0
122108  1  0  0  0
123130  1  0  0  0
123129  1  0  0  0
125122  1  0  0  0
125127  1  0  0  0
126125  1  0  0  0
128125  1  0  0  0
131123  1  0  0  0
132134  1  0  0  0
132135  1  0  0  0
133132  1  0  0  0
135138  1  0  0  0
135136  1  0  0  0
137135  1  0  0  0
137141  1  0  0  0
138142  1  0  0  0
139137  1  0  0  0
140137  1  0  0  0
142154  1  0  0  0
142153  1  0  0  0
143128  1  0  0  0
143145  1  0  0  0
144151  1  0  0  0
144143  1  0  0  0
146147  1  0  0  0
146143  1  0  0  0
148146  1  0  0  0
149146  1  0  0  0
150144  1  0  0  0
152144  1  0  0  0
155156  1  0  0  0
155157  1  0  0  0
155142  1  0  0  0
155158  1  0  0  0
157160  1  0  0  0
159157  1  0  0  0
161157  1  0  0  0
162164  1  0  0  0
162163  1  0  0  0
162149  1  0  0  0
163170  1  0  0  0
163169  1  0  0  0
165162  1  0  0  0
165167  1  0  0  0
166165  1  0  0  0
168165  1  0  0  0
171163  1  0  0  0
172158  1  0  0  0
172175  1  0  0  0
173172  1  0  0  0
174172  1  0  0  0
175177  1  0  0  0
175176  1  0  0  0
177181  1  0  0  0
178175  1  0  0  0
178192  1  0  0  0
179177  1  0  0  0
180177  1  0  0  0
182168  1  0  0  0
182184  1  0  0  0
183190  1  0  0  0
183182  1  0  0  0
185186  1  0  0  0
185182  1  0  0  0
187185  1  0  0  0
188185  1  0  0  0
189183  1  0  0  0
191183  1  0  0  0
192194  1  0  0  0
192193  1  0  0  0
195196  1  0  0  0
195192  1  0  0  0
195198  1  0  0  0
197195  1  0  0  0
197200  1  0  0  0
199197  1  0  0  0
201197  1  0  0  0
202203  1  0  0  0
202188  1  0  0  0
203210  1  0  0  0
203209  1  0  0  0
204202  1  0  0  0
205202  1  0  0  0
205207  1  0  0  0
206205  1  0  0  0
208205  1  0  0  0
211203  1  0  0  0
212198  1  0  0  0
213212  1  0  0  0
214212  1  0  0  0
215212  1  0  0  0
216215  1  0  0  0
217215  1  0  0  0
218215  1  0  0  0
219208  1  0  0  0
220219  1  0  0  0
221219  1  0  0  0
222219  1  0  0  0
223222  1  0  0  0
224222  1  0  0  0
225222  1  0  0  0
226220  1  0  0  0
227220  1  0  0  0
228220  1  0  0  0
229218  1  0  0  0
230217  1  0  0  0
231217  1  0  0  0
232217  1  0  0  0
M  END
