file:/home/renata/1,4-polybutadienetrans/19.mol
__Jmol-12_06111317323D 1   1.00000     0.00000     0
Jmol version 12.3.28  2012-05-30 15:29 EXTRACT: ({0:174 177 180:188 191 194:199})
192191  0  0  0  0              1 V2000
   0.36306   0.74532   0.28947 C   0  0  0  0  0  0
   1.80722   0.80582   0.60566 C   0  0  0  0  0  0
   0.06970   1.65406  -0.28248 H   0  0  0  0  0  0
   0.08421  -0.53103  -0.53197 C   0  0  0  0  0  0
  -0.27383   0.76397   1.20323 H   0  0  0  0  0  0
   2.25443   1.02976   1.84408 C   0  0  0  0  0  0
   3.73554   1.07294   2.10336 C   0  0  0  0  0  0
   4.26961   1.58034   1.27078 H   0  0  0  0  0  0
   4.13232   0.03204   2.11918 H   0  0  0  0  0  0
   4.01507   1.78445   3.44201 C   0  0  0  0  0  0
   2.48907   0.66837  -0.24643 H   0  0  0  0  0  0
   1.58339   1.16573   2.69809 H   0  0  0  0  0  0
   0.46473  -1.42319   0.00979 H   0  0  0  0  0  0
   0.64933  -0.50636  -1.49258 H   0  0  0  0  0  0
  -1.38684  -0.61887  -0.81929 C   0  0  0  0  0  0
  -2.02396  -1.79354  -0.76835 C   0  0  0  0  0  0
  -3.49604  -1.85943  -1.07152 C   0  0  0  0  0  0
  -3.76017  -1.17189  -1.90408 H   0  0  0  0  0  0
  -4.06915  -1.49128  -0.19025 H   0  0  0  0  0  0
  -3.89071  -3.30899  -1.41651 C   0  0  0  0  0  0
  -1.88760   0.31645  -1.09249 H   0  0  0  0  0  0
  -1.51953  -2.72535  -0.49339 H   0  0  0  0  0  0
   3.46560   1.28677   4.26958 H   0  0  0  0  0  0
   3.62141   2.82652   3.41030 H   0  0  0  0  0  0
   5.49769   1.80866   3.67744 C   0  0  0  0  0  0
   6.00476   1.57388   4.89164 C   0  0  0  0  0  0
   7.49583   1.60141   5.08783 C   0  0  0  0  0  0
   6.12658   2.04365   2.81160 H   0  0  0  0  0  0
   5.37803   1.34095   5.75802 H   0  0  0  0  0  0
   7.94701   2.46637   4.55470 H   0  0  0  0  0  0
   7.94324   0.69651   4.61665 H   0  0  0  0  0  0
   7.83108   1.65522   6.59172 C   0  0  0  0  0  0
   7.35427   0.80729   7.12827 H   0  0  0  0  0  0
   7.39766   2.57454   7.04866 H   0  0  0  0  0  0
   9.32443   1.66275   6.74580 C   0  0  0  0  0  0
   9.93390   0.84394   7.60918 C   0  0  0  0  0  0
  11.43240   0.89113   7.73400 C   0  0  0  0  0  0
  11.75105   1.89847   8.08073 H   0  0  0  0  0  0
  11.90123   0.75976   6.73199 H   0  0  0  0  0  0
  11.91763  -0.20220   8.70686 C   0  0  0  0  0  0
   9.87389   2.37873   6.12447 H   0  0  0  0  0  0
   9.38716   0.13277   8.23586 H   0  0  0  0  0  0
  -3.63496  -3.99082  -0.57721 H   0  0  0  0  0  0
  -3.29260  -3.67150  -2.28433 H   0  0  0  0  0  0
  -5.35186  -3.35111  -1.75920 C   0  0  0  0  0  0
  -6.13587  -4.33642  -1.30659 C   0  0  0  0  0  0
  -7.58875  -4.36005  -1.69716 C   0  0  0  0  0  0
  -7.68290  -4.36033  -2.80521 H   0  0  0  0  0  0
  -8.08738  -3.42381  -1.35696 H   0  0  0  0  0  0
  -8.27897  -5.59690  -1.08949 C   0  0  0  0  0  0
  -5.72570  -2.55459  -2.41191 H   0  0  0  0  0  0
  -5.76458  -5.13509  -0.65681 H   0  0  0  0  0  0
  11.52005  -1.19402   8.40181 H   0  0  0  0  0  0
  11.50737  -0.01934   9.72677 H   0  0  0  0  0  0
  13.41836  -0.18599   8.75067 C   0  0  0  0  0  0
  14.11042  -1.32304   8.88875 C   0  0  0  0  0  0
  15.61306  -1.27072   8.93984 C   0  0  0  0  0  0
  15.94129  -0.67654   9.82071 H   0  0  0  0  0  0
  16.00415  -0.72502   8.05061 H   0  0  0  0  0  0
  16.18883  -2.69902   8.99847 C   0  0  0  0  0  0
  13.90389   0.79357   8.68164 H   0  0  0  0  0  0
  13.62612  -2.30151   8.96552 H   0  0  0  0  0  0
  -8.14843  -5.60787   0.01408 H   0  0  0  0  0  0
  -7.78851  -6.52838  -1.45600 H   0  0  0  0  0  0
  -9.72797  -5.60222  -1.48349 C   0  0  0  0  0  0
 -10.65137  -6.14194  -0.67842 C   0  0  0  0  0  0
 -12.09118  -6.15610  -1.11458 C   0  0  0  0  0  0
 -12.18550  -6.66806  -2.09726 H   0  0  0  0  0  0
 -12.44224  -5.11299  -1.28771 H   0  0  0  0  0  0
 -12.95937  -6.85624  -0.05177 C   0  0  0  0  0  0
  -9.97964  -5.17202  -2.45891 H   0  0  0  0  0  0
 -10.40264  -6.57571   0.29522 H   0  0  0  0  0  0
  15.79739  -3.30672   8.15388 H   0  0  0  0  0  0
  15.84017  -3.21495   9.92265 H   0  0  0  0  0  0
  17.68979  -2.64075   8.97655 C   0  0  0  0  0  0
  18.39915  -3.72817   8.64522 C   0  0  0  0  0  0
  19.90154  -3.65583   8.62113 C   0  0  0  0  0  0
  20.28353  -3.21446   9.56738 H   0  0  0  0  0  0
  20.22556  -2.95785   7.81533 H   0  0  0  0  0  0
  20.49364  -5.06067   8.39800 C   0  0  0  0  0  0
  18.16248  -1.69215   9.25240 H   0  0  0  0  0  0
  17.92370  -4.67607   8.37391 H   0  0  0  0  0  0
 -12.84477  -6.35354   0.93322 H   0  0  0  0  0  0
 -12.60361  -7.90082   0.10393 H   0  0  0  0  0  0
 -14.39676  -6.86025  -0.48921 C   0  0  0  0  0  0
 -15.35707  -7.21939   0.37267 C   0  0  0  0  0  0
 -16.79353  -7.22104  -0.07320 C   0  0  0  0  0  0
 -16.89146  -7.70281  -1.07048 H   0  0  0  0  0  0
 -17.13661  -6.17057  -0.21542 H   0  0  0  0  0  0
 -17.66692  -7.94743   0.96734 C   0  0  0  0  0  0
 -14.61331  -6.57699  -1.52442 H   0  0  0  0  0  0
 -15.13744  -7.50186   1.40725 H   0  0  0  0  0  0
  20.07697  -5.51344   7.47193 H   0  0  0  0  0  0
  20.18535  -5.74016   9.22578 H   0  0  0  0  0  0
  21.99208  -4.97582   8.33058 C   0  0  0  0  0  0
  22.69787  -5.98783   7.80787 C   0  0  0  0  0  0
  24.19785  -5.89223   7.74634 C   0  0  0  0  0  0
  24.60994  -5.66521   8.75383 H   0  0  0  0  0  0
  24.49111  -5.03032   7.10395 H   0  0  0  0  0  0
  24.78784  -7.20630   7.19916 C   0  0  0  0  0  0
  22.46706  -4.07454   8.73228 H   0  0  0  0  0  0
  22.22055  -6.88912   7.41027 H   0  0  0  0  0  0
 -17.56645  -7.46396   1.96347 H   0  0  0  0  0  0
 -17.30381  -8.99185   1.10582 H   0  0  0  0  0  0
 -19.09995  -7.95382   0.51604 C   0  0  0  0  0  0
 -20.06784  -8.31778   1.36718 C   0  0  0  0  0  0
 -21.49859  -8.32672   0.90267 C   0  0  0  0  0  0
 -21.58964  -8.88821  -0.05273 H   0  0  0  0  0  0
 -21.82005  -7.28614   0.66783 H   0  0  0  0  0  0
 -22.40140  -8.94681   1.98616 C   0  0  0  0  0  0
 -19.30795  -7.66794  -0.52029 H   0  0  0  0  0  0
 -19.85811  -8.60368   2.40266 H   0  0  0  0  0  0
  24.33773  -7.45014   6.21229 H   0  0  0  0  0  0
  24.51493  -8.05485   7.86818 H   0  0  0  0  0  0
  26.28229  -7.08984   7.09993 C   0  0  0  0  0  0
  26.97178  -7.94173   6.32907 C   0  0  0  0  0  0
  28.46902  -7.82138   6.24670 C   0  0  0  0  0  0
  28.91442  -7.91007   7.26167 H   0  0  0  0  0  0
  28.74618  -6.80356   5.88810 H   0  0  0  0  0  0
  29.03337  -8.90365   5.30629 C   0  0  0  0  0  0
  26.76870  -6.30318   7.68618 H   0  0  0  0  0  0
  26.48357  -8.72934   5.74653 H   0  0  0  0  0  0
 -22.29429  -8.39138   2.94330 H   0  0  0  0  0  0
 -22.07068  -9.98775   2.20779 H   0  0  0  0  0  0
 -23.82907  -8.94934   1.51898 C   0  0  0  0  0  0
 -24.82096  -9.15748   2.39467 C   0  0  0  0  0  0
 -26.24496  -9.17249   1.90993 C   0  0  0  0  0  0
 -26.36375  -9.92572   1.10055 H   0  0  0  0  0  0
 -26.49320  -8.19203   1.44243 H   0  0  0  0  0  0
 -27.19858  -9.47551   3.08145 C   0  0  0  0  0  0
 -24.01381  -8.79261   0.45115 H   0  0  0  0  0  0
 -24.63547  -9.31560   3.46170 H   0  0  0  0  0  0
  28.55047  -8.83634   4.30710 H   0  0  0  0  0  0
  28.77682  -9.91693   5.69293 H   0  0  0  0  0  0
  30.52441  -8.75731   5.19723 C   0  0  0  0  0  0
  31.18695  -9.37388   4.20958 C   0  0  0  0  0  0
  32.68188  -9.23384   4.11907 C   0  0  0  0  0  0
  33.15594  -9.62772   5.04471 H   0  0  0  0  0  0
  32.95951  -8.15565   4.07806 H   0  0  0  0  0  0
  33.20624  -9.98023   2.87725 C   0  0  0  0  0  0
  31.03121  -8.14939   5.95383 H   0  0  0  0  0  0
  30.67781  -9.98280   3.45589 H   0  0  0  0  0  0
 -27.05440  -8.73491   3.89799 H   0  0  0  0  0  0
 -26.94981 -10.46498   3.53000 H   0  0  0  0  0  0
 -28.61982  -9.47406   2.59496 C   0  0  0  0  0  0
 -29.62908  -9.42894   3.47438 C   0  0  0  0  0  0
 -31.04789  -9.44656   2.97482 C   0  0  0  0  0  0
 -31.23202 -10.37496   2.39116 H   0  0  0  0  0  0
 -31.20734  -8.60819   2.25860 H   0  0  0  0  0  0
 -32.02580  -9.34405   4.16099 C   0  0  0  0  0  0
 -28.78630  -9.52528   1.51393 H   0  0  0  0  0  0
 -29.46097  -9.37939   4.55485 H   0  0  0  0  0  0
  32.70238  -9.60442   1.96019 H   0  0  0  0  0  0
  32.94064 -11.06072   2.94099 H   0  0  0  0  0  0
  34.69625  -9.81912   2.77381 C   0  0  0  0  0  0
  35.33420 -10.21327   1.66414 C   0  0  0  0  0  0
  36.82064 -10.07404   1.56198 C   0  0  0  0  0  0
  37.33554 -10.76149   2.25244 H   0  0  0  0  0  0
  37.15166  -9.05044   1.81121 H   0  0  0  0  0  0
  37.32471 -10.37580   0.18180 C   0  0  0  0  0  0
  35.22328  -9.38491   3.62943 H   0  0  0  0  0  0
  34.80171 -10.64913   0.80893 H   0  0  0  0  0  0
 -31.81506  -8.42927   4.75673 H   0  0  0  0  0  0
 -31.86814 -10.19729   4.86058 H   0  0  0  0  0  0
 -33.44186  -9.34303   3.65929 C   0  0  0  0  0  0
 -34.44824  -9.04498   4.49033 C   0  0  0  0  0  0
 -35.85950  -9.06566   3.99101 C   0  0  0  0  0  0
 -36.18486 -10.09102   3.75182 H   0  0  0  0  0  0
 -35.97529  -8.46284   3.07320 H   0  0  0  0  0  0
 -36.82648  -8.52063   4.99993 C   0  0  0  0  0  0
 -33.60315  -9.60336   2.60492 H   0  0  0  0  0  0
 -34.28762  -8.78618   5.54153 H   0  0  0  0  0  0
  37.09723 -11.42188  -0.07112 H   0  0  0  0  0  0
  38.80845 -10.16100   0.13324 C   0  0  0  0  0  0
  36.83379  -9.70855  -0.54193 H   0  0  0  0  0  0
  39.31251 -10.46276  -1.24693 C   0  0  0  0  0  0
  40.79626 -10.24796  -1.29549 C   0  0  0  0  0  0
  41.28727 -10.91522  -0.57183 H   0  0  0  0  0  0
  41.02383  -9.20189  -1.04264 H   0  0  0  0  0  0
  41.16590 -10.46925  -2.30762 H   0  0  0  0  0  0
  39.43066  -9.83294   0.97896 H   0  0  0  0  0  0
  38.69031 -10.79083  -2.09265 H   0  0  0  0  0  0
 -36.56289  -7.47887   5.23501 H   0  0  0  0  0  0
 -36.78003  -9.12642   5.91692 H   0  0  0  0  0  0
 -38.21637  -8.57004   4.43799 C   0  0  0  0  0  0
 -39.18334  -8.02502   5.44690 C   0  0  0  0  0  0
 -40.57322  -8.07444   4.88496 C   0  0  0  0  0  0
 -40.83692  -9.11617   4.64990 H   0  0  0  0  0  0
 -40.61979  -7.46862   3.96799 H   0  0  0  0  0  0
 -41.28234  -7.67476   5.62483 H   0  0  0  0  0  0
 -38.48495  -8.94757   3.44032 H   0  0  0  0  0  0
 -38.91475  -7.64750   6.44457 H   0  0  0  0  0  0
  1  2  1  0  0  0
  1  3  1  0  0  0
  1  5  1  0  0  0
  2  6  2  0  0  0
  4 15  1  0  0  0
  4  1  1  0  0  0
  6 12  1  0  0  0
  7  6  1  0  0  0
  7 10  1  0  0  0
  8  7  1  0  0  0
  9  7  1  0  0  0
 10 24  1  0  0  0
 10 23  1  0  0  0
 11  2  1  0  0  0
 13  4  1  0  0  0
 14  4  1  0  0  0
 15 21  1  0  0  0
 16 17  1  0  0  0
 16 15  2  0  0  0
 17 19  1  0  0  0
 18 17  1  0  0  0
 20 43  1  0  0  0
 20 17  1  0  0  0
 22 16  1  0  0  0
 25 10  1  0  0  0
 25 26  2  0  0  0
 26 29  1  0  0  0
 27 26  1  0  0  0
 27 32  1  0  0  0
 28 25  1  0  0  0
 30 27  1  0  0  0
 31 27  1  0  0  0
 32 33  1  0  0  0
 32 34  1  0  0  0
 35 32  1  0  0  0
 35 36  2  0  0  0
 36 42  1  0  0  0
 37 36  1  0  0  0
 37 40  1  0  0  0
 37 38  1  0  0  0
 39 37  1  0  0  0
 40 54  1  0  0  0
 41 35  1  0  0  0
 44 20  1  0  0  0
 45 20  1  0  0  0
 45 46  2  0  0  0
 46 52  1  0  0  0
 47 46  1  0  0  0
 47 50  1  0  0  0
 47 49  1  0  0  0
 48 47  1  0  0  0
 50 63  1  0  0  0
 51 45  1  0  0  0
 53 40  1  0  0  0
 55 40  1  0  0  0
 55 61  1  0  0  0
 56 55  2  0  0  0
 57 56  1  0  0  0
 57 58  1  0  0  0
 59 57  1  0  0  0
 60 74  1  0  0  0
 60 57  1  0  0  0
 62 56  1  0  0  0
 64 50  1  0  0  0
 65 50  1  0  0  0
 65 66  2  0  0  0
 66 72  1  0  0  0
 67 66  1  0  0  0
 67 69  1  0  0  0
 67 70  1  0  0  0
 68 67  1  0  0  0
 70 83  1  0  0  0
 71 65  1  0  0  0
 73 60  1  0  0  0
 75 60  1  0  0  0
 75 81  1  0  0  0
 76 75  2  0  0  0
 77 76  1  0  0  0
 77 78  1  0  0  0
 79 77  1  0  0  0
 80 94  1  0  0  0
 80 77  1  0  0  0
 82 76  1  0  0  0
 84 70  1  0  0  0
 85 70  1  0  0  0
 85 86  2  0  0  0
 86 92  1  0  0  0
 87 86  1  0  0  0
 87 89  1  0  0  0
 87 90  1  0  0  0
 88 87  1  0  0  0
 90103  1  0  0  0
 91 85  1  0  0  0
 93 80  1  0  0  0
 95 80  1  0  0  0
 95101  1  0  0  0
 96 95  2  0  0  0
 97 96  1  0  0  0
 97 98  1  0  0  0
 99 97  1  0  0  0
100114  1  0  0  0
100 97  1  0  0  0
102 96  1  0  0  0
104 90  1  0  0  0
105 90  1  0  0  0
105106  2  0  0  0
106112  1  0  0  0
107106  1  0  0  0
107109  1  0  0  0
107110  1  0  0  0
108107  1  0  0  0
110123  1  0  0  0
111105  1  0  0  0
113100  1  0  0  0
115100  1  0  0  0
115121  1  0  0  0
116115  2  0  0  0
117119  1  0  0  0
117116  1  0  0  0
117118  1  0  0  0
120117  1  0  0  0
122116  1  0  0  0
124110  1  0  0  0
125110  1  0  0  0
125126  2  0  0  0
126132  1  0  0  0
127129  1  0  0  0
127126  1  0  0  0
127130  1  0  0  0
128127  1  0  0  0
130143  1  0  0  0
131125  1  0  0  0
133120  1  0  0  0
134120  1  0  0  0
135120  1  0  0  0
135141  1  0  0  0
136135  2  0  0  0
137136  1  0  0  0
137139  1  0  0  0
137138  1  0  0  0
140137  1  0  0  0
142136  1  0  0  0
144130  1  0  0  0
145130  1  0  0  0
145146  2  0  0  0
146152  1  0  0  0
147146  1  0  0  0
147150  1  0  0  0
148147  1  0  0  0
149147  1  0  0  0
150164  1  0  0  0
150163  1  0  0  0
151145  1  0  0  0
153140  1  0  0  0
154140  1  0  0  0
155140  1  0  0  0
155161  1  0  0  0
156155  2  0  0  0
157158  1  0  0  0
157156  1  0  0  0
157159  1  0  0  0
160157  1  0  0  0
162156  1  0  0  0
165150  1  0  0  0
165166  2  0  0  0
166172  1  0  0  0
167166  1  0  0  0
167170  1  0  0  0
168167  1  0  0  0
169167  1  0  0  0
171165  1  0  0  0
173160  1  0  0  0
174160  1  0  0  0
175160  1  0  0  0
176174  2  0  0  0
177176  1  0  0  0
178177  1  0  0  0
179177  1  0  0  0
180177  1  0  0  0
181174  1  0  0  0
182176  1  0  0  0
183170  1  0  0  0
184170  1  0  0  0
185170  1  0  0  0
186185  2  0  0  0
187186  1  0  0  0
188187  1  0  0  0
189187  1  0  0  0
190187  1  0  0  0
191185  1  0  0  0
192186  1  0  0  0
M  END
