
 OpenBabel06181211213D

310320  0  0  0  0  0  0  0  0999 V2000
   -0.0687    0.2846   -0.9763 C   0  0  0  0  0  0  0  0  0  0  0  0
   -0.1943   -0.9526   -0.0737 C   0  0  0  0  0  0  0  0  0  0  0  0
    0.6424   -0.6753    1.2750 C   0  0  0  0  0  0  0  0  0  0  0  0
   -1.7595   -1.2006    0.1505 C   0  0  0  0  0  0  0  0  0  0  0  0
    0.3474   -2.2980   -0.6349 C   0  0  0  0  0  0  0  0  0  0  0  0
    0.2458   -3.3699   -0.0527 O   0  0  0  0  0  0  0  0  0  0  0  0
    0.0292   -0.0503    1.9369 H   0  0  0  0  0  0  0  0  0  0  0  0
    2.0851    0.0151    1.0851 C   0  0  0  0  0  0  0  0  0  0  0  0
    0.7863   -1.6242    1.8077 H   0  0  0  0  0  0  0  0  0  0  0  0
    0.9292    0.5540   -1.2832 H   0  0  0  0  0  0  0  0  0  0  0  0
   -0.5134    1.1480   -0.4746 H   0  0  0  0  0  0  0  0  0  0  0  0
   -0.5079    0.1831   -1.9553 H   0  0  0  0  0  0  0  0  0  0  0  0
   -2.7000   -1.1362   -1.1591 C   0  0  0  0  0  0  0  0  0  0  0  0
   -2.1199   -0.4636    0.8805 H   0  0  0  0  0  0  0  0  0  0  0  0
   -1.8993   -2.1800    0.6263 H   0  0  0  0  0  0  0  0  0  0  0  0
   -2.0059   -1.8653   -2.3158 C   0  0  0  0  0  0  0  0  0  0  0  0
   -3.0338    0.3669   -1.3786 C   0  0  0  0  0  0  0  0  0  0  0  0
   -4.0940   -1.8566   -0.9358 C   0  0  0  0  0  0  0  0  0  0  0  0
   -1.8291   -2.9057   -2.0314 H   0  0  0  0  0  0  0  0  0  0  0  0
   -1.0725   -1.4347   -2.6515 H   0  0  0  0  0  0  0  0  0  0  0  0
   -2.5491   -1.8601   -3.2478 H   0  0  0  0  0  0  0  0  0  0  0  0
   -3.6751    1.0425   -0.5839 O   0  0  0  0  0  0  0  0  0  0  0  0
   -4.6571   -1.2726   -0.1957 H   0  0  0  0  0  0  0  0  0  0  0  0
   -3.9035   -2.8243   -0.4515 H   0  0  0  0  0  0  0  0  0  0  0  0
   -5.0369   -2.1145   -2.2092 C   0  0  0  0  0  0  0  0  0  0  0  0
   -4.6335   -3.4804   -2.8354 C   0  0  0  0  0  0  0  0  0  0  0  0
   -4.9662   -0.9624   -3.2114 C   0  0  0  0  0  0  0  0  0  0  0  0
   -6.5314   -2.2232   -1.7198 C   0  0  0  0  0  0  0  0  0  0  0  0
   -3.9824   -0.7062   -3.5872 H   0  0  0  0  0  0  0  0  0  0  0  0
   -5.3744   -0.0668   -2.7446 H   0  0  0  0  0  0  0  0  0  0  0  0
   -5.4944   -1.1940   -4.1335 H   0  0  0  0  0  0  0  0  0  0  0  0
   -4.7681   -4.5577   -2.2789 O   0  0  0  0  0  0  0  0  0  0  0  0
   -6.6972   -1.4484   -0.9587 H   0  0  0  0  0  0  0  0  0  0  0  0
   -6.6565   -3.1797   -1.1942 H   0  0  0  0  0  0  0  0  0  0  0  0
   -7.7039   -2.0935   -2.7421 C   0  0  0  0  0  0  0  0  0  0  0  0
   -7.6189   -3.0391   -3.9386 C   0  0  0  0  0  0  0  0  0  0  0  0
   -8.0258   -0.6324   -3.1105 C   0  0  0  0  0  0  0  0  0  0  0  0
   -8.6061   -2.4147   -2.1993 H   0  0  0  0  0  0  0  0  0  0  0  0
   -7.5077   -4.0761   -3.6052 H   0  0  0  0  0  0  0  0  0  0  0  0
   -6.7895   -2.8107   -4.6115 H   0  0  0  0  0  0  0  0  0  0  0  0
   -8.5340   -2.9778   -4.5380 H   0  0  0  0  0  0  0  0  0  0  0  0
   -8.5821    0.1434   -2.3444 O   0  0  0  0  0  0  0  0  0  0  0  0
   -7.5527   -0.2892   -4.3384 O   0  0  0  0  0  0  0  0  0  0  0  0
   -7.5911    1.0989   -4.7606 C   0  0  0  0  0  0  0  0  0  0  0  0
   -2.5246    0.8494   -2.5418 O   0  0  0  0  0  0  0  0  0  0  0  0
   -2.6912    2.2542   -2.8401 C   0  0  0  0  0  0  0  0  0  0  0  0
    0.9302   -2.1494   -1.8520 O   0  0  0  0  0  0  0  0  0  0  0  0
    1.4563   -3.3145   -2.5204 C   0  0  0  0  0  0  0  0  0  0  0  0
    0.7163   -4.1236   -2.4890 H   0  0  0  0  0  0  0  0  0  0  0  0
    2.7743   -3.7634   -1.8834 C   0  0  0  0  0  0  0  0  0  0  0  0
    1.6789   -2.8846   -3.9751 C   0  0  0  0  0  0  0  0  0  0  0  0
    2.4051   -3.9409   -4.7977 C   0  0  0  0  0  0  0  0  0  0  0  0
    2.6033   -4.1341   -0.8668 H   0  0  0  0  0  0  0  0  0  0  0  0
    3.4375   -2.8986   -1.7800 H   0  0  0  0  0  0  0  0  0  0  0  0
    3.4782   -4.8343   -2.7072 C   0  0  0  0  0  0  0  0  0  0  0  0
    2.8737   -5.7490   -2.7165 H   0  0  0  0  0  0  0  0  0  0  0  0
    4.4354   -5.0882   -2.2387 H   0  0  0  0  0  0  0  0  0  0  0  0
    1.7642   -4.8208   -4.9166 H   0  0  0  0  0  0  0  0  0  0  0  0
    3.7125   -4.3586   -4.1374 C   0  0  0  0  0  0  0  0  0  0  0  0
    2.6073   -3.5495   -5.8010 H   0  0  0  0  0  0  0  0  0  0  0  0
    4.4005   -3.5049   -4.1362 H   0  0  0  0  0  0  0  0  0  0  0  0
    4.1892   -5.1536   -4.7208 H   0  0  0  0  0  0  0  0  0  0  0  0
    2.2537   -1.9480   -3.9932 H   0  0  0  0  0  0  0  0  0  0  0  0
    0.7151   -2.6427   -4.4391 H   0  0  0  0  0  0  0  0  0  0  0  0
   -4.0563   -3.3193   -4.0577 O   0  0  0  0  0  0  0  0  0  0  0  0
   -3.4307   -4.4475   -4.7141 C   0  0  0  0  0  0  0  0  0  0  0  0
   -4.1418   -5.2805   -4.7623 H   0  0  0  0  0  0  0  0  0  0  0  0
   -2.1384   -4.8713   -4.0010 C   0  0  0  0  0  0  0  0  0  0  0  0
   -3.1023   -3.9623   -6.1333 C   0  0  0  0  0  0  0  0  0  0  0  0
   -2.5549   -3.0108   -6.0728 H   0  0  0  0  0  0  0  0  0  0  0  0
   -4.0313   -3.7297   -6.6672 H   0  0  0  0  0  0  0  0  0  0  0  0
   -2.2780   -4.9666   -6.9316 C   0  0  0  0  0  0  0  0  0  0  0  0
   -2.3571   -5.2602   -3.0009 H   0  0  0  0  0  0  0  0  0  0  0  0
   -1.5007   -3.9942   -3.8552 H   0  0  0  0  0  0  0  0  0  0  0  0
   -1.3391   -5.8997   -4.7923 C   0  0  0  0  0  0  0  0  0  0  0  0
   -1.0125   -5.3758   -6.1864 C   0  0  0  0  0  0  0  0  0  0  0  0
   -1.9069   -6.8340   -4.8681 H   0  0  0  0  0  0  0  0  0  0  0  0
   -0.4086   -6.1294   -4.2599 H   0  0  0  0  0  0  0  0  0  0  0  0
   -2.8841   -5.8560   -7.1383 H   0  0  0  0  0  0  0  0  0  0  0  0
   -2.0053   -4.5297   -7.8990 H   0  0  0  0  0  0  0  0  0  0  0  0
   -0.4722   -6.1406   -6.7550 H   0  0  0  0  0  0  0  0  0  0  0  0
   -0.3456   -4.5085   -6.1062 H   0  0  0  0  0  0  0  0  0  0  0  0
   -1.7790    3.1246   -1.9666 C   0  0  0  0  0  0  0  0  0  0  0  0
   -3.7409    2.5371   -2.6986 H   0  0  0  0  0  0  0  0  0  0  0  0
   -2.3143    2.4111   -4.3177 C   0  0  0  0  0  0  0  0  0  0  0  0
   -6.6792    2.0013   -3.9129 C   0  0  0  0  0  0  0  0  0  0  0  0
   -8.6288    1.4509   -4.7233 H   0  0  0  0  0  0  0  0  0  0  0  0
   -7.0954    1.1093   -6.2158 C   0  0  0  0  0  0  0  0  0  0  0  0
   -0.7564    2.7372   -2.0147 H   0  0  0  0  0  0  0  0  0  0  0  0
   -2.0779    3.0631   -0.9146 H   0  0  0  0  0  0  0  0  0  0  0  0
   -1.7652    4.5825   -2.4091 C   0  0  0  0  0  0  0  0  0  0  0  0
   -3.0170    1.8430   -4.9386 H   0  0  0  0  0  0  0  0  0  0  0  0
   -1.3321    1.9500   -4.4925 H   0  0  0  0  0  0  0  0  0  0  0  0
   -2.2768    3.8679   -4.7649 C   0  0  0  0  0  0  0  0  0  0  0  0
   -2.7570    5.0245   -2.2580 H   0  0  0  0  0  0  0  0  0  0  0  0
   -1.0633    5.1486   -1.7862 H   0  0  0  0  0  0  0  0  0  0  0  0
   -1.3641    4.7028   -3.8753 C   0  0  0  0  0  0  0  0  0  0  0  0
   -3.2882    4.2879   -4.7394 H   0  0  0  0  0  0  0  0  0  0  0  0
   -1.9291    3.9241   -5.8025 H   0  0  0  0  0  0  0  0  0  0  0  0
   -1.3959    5.7530   -4.1850 H   0  0  0  0  0  0  0  0  0  0  0  0
   -0.3299    4.3622   -4.0044 H   0  0  0  0  0  0  0  0  0  0  0  0
   -7.7746    0.5199   -6.8427 H   0  0  0  0  0  0  0  0  0  0  0  0
   -6.1258    0.5941   -6.2716 H   0  0  0  0  0  0  0  0  0  0  0  0
   -6.9501    2.5180   -6.7862 C   0  0  0  0  0  0  0  0  0  0  0  0
   -5.6680    1.5853   -3.8964 H   0  0  0  0  0  0  0  0  0  0  0  0
   -7.0148    2.0336   -2.8718 H   0  0  0  0  0  0  0  0  0  0  0  0
   -6.5805    3.4186   -4.4648 C   0  0  0  0  0  0  0  0  0  0  0  0
   -6.0774    3.4036   -5.9036 C   0  0  0  0  0  0  0  0  0  0  0  0
   -7.9414    2.9735   -6.8909 H   0  0  0  0  0  0  0  0  0  0  0  0
   -6.5130    2.4640   -7.7900 H   0  0  0  0  0  0  0  0  0  0  0  0
   -7.5606    3.9064   -4.4157 H   0  0  0  0  0  0  0  0  0  0  0  0
   -5.8944    4.0066   -3.8438 H   0  0  0  0  0  0  0  0  0  0  0  0
   -6.0540    4.4245   -6.3004 H   0  0  0  0  0  0  0  0  0  0  0  0
   -5.0463    3.0306   -5.9274 H   0  0  0  0  0  0  0  0  0  0  0  0
    1.7839    1.5340    0.8978 C   0  0  0  0  0  0  0  0  0  0  0  0
    2.7810   -0.7121   -0.0815 C   0  0  0  0  0  0  0  0  0  0  0  0
    2.2881   -0.6397   -1.0370 H   0  0  0  0  0  0  0  0  0  0  0  0
    2.9120   -1.7695    0.1651 H   0  0  0  0  0  0  0  0  0  0  0  0
    3.7364   -0.3164   -0.3843 H   0  0  0  0  0  0  0  0  0  0  0  0
    1.1656    2.2121    1.7079 O   0  0  0  0  0  0  0  0  0  0  0  0
    2.2716    2.0150   -0.2749 O   0  0  0  0  0  0  0  0  0  0  0  0
    2.0363    3.3954   -0.6237 C   0  0  0  0  0  0  0  0  0  0  0  0
    2.9594    4.3251    0.1678 C   0  0  0  0  0  0  0  0  0  0  0  0
    0.9851    3.6489   -0.4406 H   0  0  0  0  0  0  0  0  0  0  0  0
    2.3315    3.4940   -2.1258 C   0  0  0  0  0  0  0  0  0  0  0  0
    3.9877    3.9551    0.1007 H   0  0  0  0  0  0  0  0  0  0  0  0
    2.7014    4.3052    1.2323 H   0  0  0  0  0  0  0  0  0  0  0  0
    2.9120    5.7593   -0.3458 C   0  0  0  0  0  0  0  0  0  0  0  0
    1.6123    2.8836   -2.6847 H   0  0  0  0  0  0  0  0  0  0  0  0
    3.3135    3.0464   -2.3331 H   0  0  0  0  0  0  0  0  0  0  0  0
    2.3102    4.9278   -2.6391 C   0  0  0  0  0  0  0  0  0  0  0  0
    1.9142    6.1798   -0.1727 H   0  0  0  0  0  0  0  0  0  0  0  0
    3.2433    5.8211   -1.8337 C   0  0  0  0  0  0  0  0  0  0  0  0
    3.6210    6.3755    0.2178 H   0  0  0  0  0  0  0  0  0  0  0  0
    1.2934    5.3277   -2.5781 H   0  0  0  0  0  0  0  0  0  0  0  0
    2.6018    4.9446   -3.6953 H   0  0  0  0  0  0  0  0  0  0  0  0
    4.2772    5.4966   -1.9990 H   0  0  0  0  0  0  0  0  0  0  0  0
    3.1706    6.8546   -2.1890 H   0  0  0  0  0  0  0  0  0  0  0  0
    3.0552   -0.0738    2.3687 C   0  0  0  0  0  0  0  0  0  0  0  0
    2.9230   -1.0605    2.8304 H   0  0  0  0  0  0  0  0  0  0  0  0
    2.7241    0.6559    3.1189 H   0  0  0  0  0  0  0  0  0  0  0  0
    4.6245    0.1733    2.0881 C   0  0  0  0  0  0  0  0  0  0  0  0
    4.7298    1.4125    1.1783 C   0  0  0  0  0  0  0  0  0  0  0  0
    5.1484   -1.1803    1.5178 C   0  0  0  0  0  0  0  0  0  0  0  0
    5.5154    0.4533    3.3965 C   0  0  0  0  0  0  0  0  0  0  0  0
    5.6782   -0.4934    3.9277 H   0  0  0  0  0  0  0  0  0  0  0  0
    4.9322    1.0838    4.0797 H   0  0  0  0  0  0  0  0  0  0  0  0
    6.9547    1.1386    3.1409 C   0  0  0  0  0  0  0  0  0  0  0  0
    6.6534    2.6552    2.9520 C   0  0  0  0  0  0  0  0  0  0  0  0
    7.6112    0.4037    1.9556 C   0  0  0  0  0  0  0  0  0  0  0  0
    7.9606    1.0609    4.3849 C   0  0  0  0  0  0  0  0  0  0  0  0
    7.8403    0.0797    4.8618 H   0  0  0  0  0  0  0  0  0  0  0  0
    7.6529    1.7974    5.1387 H   0  0  0  0  0  0  0  0  0  0  0  0
    9.5204    1.3001    4.0586 C   0  0  0  0  0  0  0  0  0  0  0  0
    4.3012    2.2831    1.6829 H   0  0  0  0  0  0  0  0  0  0  0  0
    4.2762    1.3182    0.2055 H   0  0  0  0  0  0  0  0  0  0  0  0
    5.7209    1.6729    0.8466 H   0  0  0  0  0  0  0  0  0  0  0  0
    5.0392   -2.2528    2.0977 O   0  0  0  0  0  0  0  0  0  0  0  0
    6.0406    3.3356    3.7645 O   0  0  0  0  0  0  0  0  0  0  0  0
    7.0976    0.4890    1.0112 H   0  0  0  0  0  0  0  0  0  0  0  0
    7.7355   -0.6564    2.1948 H   0  0  0  0  0  0  0  0  0  0  0  0
    8.5661    0.7870    1.6357 H   0  0  0  0  0  0  0  0  0  0  0  0
    7.1200    3.1282    1.7675 O   0  0  0  0  0  0  0  0  0  0  0  0
    5.7179   -1.0374    0.2932 O   0  0  0  0  0  0  0  0  0  0  0  0
    6.1791   -2.2102   -0.4084 C   0  0  0  0  0  0  0  0  0  0  0  0
    6.8136    4.4857    1.3918 C   0  0  0  0  0  0  0  0  0  0  0  0
    5.4208   -3.0001   -0.3465 H   0  0  0  0  0  0  0  0  0  0  0  0
    7.5110   -2.7012    0.1624 C   0  0  0  0  0  0  0  0  0  0  0  0
    6.3450   -1.7753   -1.8701 C   0  0  0  0  0  0  0  0  0  0  0  0
    7.3750   -3.0733    1.1838 H   0  0  0  0  0  0  0  0  0  0  0  0
    8.2045   -1.8573    0.2395 H   0  0  0  0  0  0  0  0  0  0  0  0
    8.1383   -3.7889   -0.7018 C   0  0  0  0  0  0  0  0  0  0  0  0
    6.9458   -0.8562   -1.9100 H   0  0  0  0  0  0  0  0  0  0  0  0
    5.3689   -1.5003   -2.2875 H   0  0  0  0  0  0  0  0  0  0  0  0
    6.9988   -2.8460   -2.7334 C   0  0  0  0  0  0  0  0  0  0  0  0
    6.3292   -3.7059   -2.8250 H   0  0  0  0  0  0  0  0  0  0  0  0
    7.1629   -2.4550   -3.7438 H   0  0  0  0  0  0  0  0  0  0  0  0
    8.3207   -3.3118   -2.1395 C   0  0  0  0  0  0  0  0  0  0  0  0
    7.5023   -4.6822   -0.6883 H   0  0  0  0  0  0  0  0  0  0  0  0
    9.1074   -4.0797   -0.2820 H   0  0  0  0  0  0  0  0  0  0  0  0
    8.7393   -4.1196   -2.7494 H   0  0  0  0  0  0  0  0  0  0  0  0
    9.0367   -2.4825   -2.1692 H   0  0  0  0  0  0  0  0  0  0  0  0
    7.7209    5.4734    2.1274 C   0  0  0  0  0  0  0  0  0  0  0  0
    5.7597    4.7008    1.6070 H   0  0  0  0  0  0  0  0  0  0  0  0
    7.0465    4.5580   -0.1224 C   0  0  0  0  0  0  0  0  0  0  0  0
    8.7634    5.1504    2.0314 H   0  0  0  0  0  0  0  0  0  0  0  0
    7.5017    5.4651    3.2008 H   0  0  0  0  0  0  0  0  0  0  0  0
    7.5767    6.8908    1.5844 C   0  0  0  0  0  0  0  0  0  0  0  0
    6.3346    3.9015   -0.6376 H   0  0  0  0  0  0  0  0  0  0  0  0
    8.0391    4.1506   -0.3583 H   0  0  0  0  0  0  0  0  0  0  0  0
    6.9363    5.9756   -0.6671 C   0  0  0  0  0  0  0  0  0  0  0  0
    5.9040    6.3251   -0.5764 H   0  0  0  0  0  0  0  0  0  0  0  0
    7.1867    5.9813   -1.7339 H   0  0  0  0  0  0  0  0  0  0  0  0
    6.5636    7.2601    1.7859 H   0  0  0  0  0  0  0  0  0  0  0  0
    7.8477    6.9367    0.0835 C   0  0  0  0  0  0  0  0  0  0  0  0
    8.2702    7.5587    2.1066 H   0  0  0  0  0  0  0  0  0  0  0  0
    8.8920    6.6693   -0.1149 H   0  0  0  0  0  0  0  0  0  0  0  0
    7.7006    7.9559   -0.2899 H   0  0  0  0  0  0  0  0  0  0  0  0
    9.6338    2.5307    3.1378 C   0  0  0  0  0  0  0  0  0  0  0  0
   10.0306   -0.0489    3.4804 C   0  0  0  0  0  0  0  0  0  0  0  0
   10.4130    1.5616    5.3526 C   0  0  0  0  0  0  0  0  0  0  0  0
   10.5575    0.6099    5.8812 H   0  0  0  0  0  0  0  0  0  0  0  0
    9.8378    2.1937    6.0419 H   0  0  0  0  0  0  0  0  0  0  0  0
   11.8584    2.2272    5.1180 C   0  0  0  0  0  0  0  0  0  0  0  0
   11.5866    3.7406    4.9190 C   0  0  0  0  0  0  0  0  0  0  0  0
   12.5631    1.5012    3.9596 C   0  0  0  0  0  0  0  0  0  0  0  0
   12.7730    2.1284    6.4031 C   0  0  0  0  0  0  0  0  0  0  0  0
   12.6321    1.1329    6.8453 H   0  0  0  0  0  0  0  0  0  0  0  0
   12.3842    2.8315    7.1522 H   0  0  0  0  0  0  0  0  0  0  0  0
   14.3447    2.3901    6.2404 C   0  0  0  0  0  0  0  0  0  0  0  0
    9.2239    3.4153    3.6342 H   0  0  0  0  0  0  0  0  0  0  0  0
    9.1637    2.4357    2.1707 H   0  0  0  0  0  0  0  0  0  0  0  0
   10.6338    2.7597    2.8037 H   0  0  0  0  0  0  0  0  0  0  0  0
    9.9026   -1.1261    4.0481 O   0  0  0  0  0  0  0  0  0  0  0  0
   10.9388    4.4214    5.7047 O   0  0  0  0  0  0  0  0  0  0  0  0
   12.0846    1.6021    2.9945 H   0  0  0  0  0  0  0  0  0  0  0  0
   12.6717    0.4363    4.1855 H   0  0  0  0  0  0  0  0  0  0  0  0
   13.5401    1.8918    3.7166 H   0  0  0  0  0  0  0  0  0  0  0  0
   10.6026    0.1002    2.2577 O   0  0  0  0  0  0  0  0  0  0  0  0
   12.0934    4.2099    3.7493 O   0  0  0  0  0  0  0  0  0  0  0  0
   11.6908    5.5329    3.3438 C   0  0  0  0  0  0  0  0  0  0  0  0
   10.9878   -1.0866    1.5381 C   0  0  0  0  0  0  0  0  0  0  0  0
   10.2059   -1.8503    1.6350 H   0  0  0  0  0  0  0  0  0  0  0  0
   12.3233   -1.6245    2.0544 C   0  0  0  0  0  0  0  0  0  0  0  0
   11.0988   -0.6673    0.0680 C   0  0  0  0  0  0  0  0  0  0  0  0
   12.2155   -1.9830    3.0842 H   0  0  0  0  0  0  0  0  0  0  0  0
   13.0547   -0.8090    2.0966 H   0  0  0  0  0  0  0  0  0  0  0  0
   12.8587   -2.7478    1.1734 C   0  0  0  0  0  0  0  0  0  0  0  0
   11.7348    0.2247   -0.0110 H   0  0  0  0  0  0  0  0  0  0  0  0
   10.1143   -0.3558   -0.3024 H   0  0  0  0  0  0  0  0  0  0  0  0
   11.6601   -1.7751   -0.8127 C   0  0  0  0  0  0  0  0  0  0  0  0
   10.9465   -2.6029   -0.8585 H   0  0  0  0  0  0  0  0  0  0  0  0
   11.7895   -1.4038   -1.8354 H   0  0  0  0  0  0  0  0  0  0  0  0
   12.9872   -2.2987   -0.2792 C   0  0  0  0  0  0  0  0  0  0  0  0
   12.1853   -3.6119    1.2317 H   0  0  0  0  0  0  0  0  0  0  0  0
   13.8347   -3.0766    1.5465 H   0  0  0  0  0  0  0  0  0  0  0  0
   13.3297   -3.1357   -0.8973 H   0  0  0  0  0  0  0  0  0  0  0  0
   13.7446   -1.5101   -0.3579 H   0  0  0  0  0  0  0  0  0  0  0  0
   12.5254    6.5940    4.0603 C   0  0  0  0  0  0  0  0  0  0  0  0
   10.6247    5.6810    3.5602 H   0  0  0  0  0  0  0  0  0  0  0  0
   11.8957    5.5982    1.8267 C   0  0  0  0  0  0  0  0  0  0  0  0
   11.2296    4.8792    1.3336 H   0  0  0  0  0  0  0  0  0  0  0  0
   12.9142    5.2717    1.5787 H   0  0  0  0  0  0  0  0  0  0  0  0
   11.6534    6.9947    1.2706 C   0  0  0  0  0  0  0  0  0  0  0  0
   13.5872    6.3395    3.9713 H   0  0  0  0  0  0  0  0  0  0  0  0
   12.3086    6.5864    5.1344 H   0  0  0  0  0  0  0  0  0  0  0  0
   12.2701    7.9895    3.4994 C   0  0  0  0  0  0  0  0  0  0  0  0
   10.5959    7.2528    1.3825 H   0  0  0  0  0  0  0  0  0  0  0  0
   11.8761    7.0100    0.1978 H   0  0  0  0  0  0  0  0  0  0  0  0
   11.2381    8.2889    3.7218 H   0  0  0  0  0  0  0  0  0  0  0  0
   12.4971    8.0388    1.9912 C   0  0  0  0  0  0  0  0  0  0  0  0
   12.9270    8.7127    3.9949 H   0  0  0  0  0  0  0  0  0  0  0  0
   13.5573    7.8650    1.7721 H   0  0  0  0  0  0  0  0  0  0  0  0
   12.2505    9.0368    1.6122 H   0  0  0  0  0  0  0  0  0  0  0  0
   14.6066    3.6101    5.3506 C   0  0  0  0  0  0  0  0  0  0  0  0
   14.9605    1.0817    5.6865 C   0  0  0  0  0  0  0  0  0  0  0  0
   14.9767    2.6343    7.6594 C   0  0  0  0  0  0  0  0  0  0  0  0
   15.0139    1.6711    8.1879 H   0  0  0  0  0  0  0  0  0  0  0  0
   14.2704    3.2489    8.2353 H   0  0  0  0  0  0  0  0  0  0  0  0
   16.3919    3.3179    7.7885 C   0  0  0  0  0  0  0  0  0  0  0  0
   16.2685    4.8271    7.4737 C   0  0  0  0  0  0  0  0  0  0  0  0
   17.4769    2.5968    6.9719 C   0  0  0  0  0  0  0  0  0  0  0  0
   16.8210    3.2347    9.2695 C   0  0  0  0  0  0  0  0  0  0  0  0
   16.9509    2.1934    9.5858 H   0  0  0  0  0  0  0  0  0  0  0  0
   16.0770    3.6939    9.9300 H   0  0  0  0  0  0  0  0  0  0  0  0
   17.7700    3.7582    9.4342 H   0  0  0  0  0  0  0  0  0  0  0  0
   14.1874    4.5176    5.7931 H   0  0  0  0  0  0  0  0  0  0  0  0
   14.2255    3.5407    4.3378 H   0  0  0  0  0  0  0  0  0  0  0  0
   15.6682    3.7409    5.1668 H   0  0  0  0  0  0  0  0  0  0  0  0
   14.7800   -0.0209    6.1880 O   0  0  0  0  0  0  0  0  0  0  0  0
   15.4952    5.5717    8.0664 O   0  0  0  0  0  0  0  0  0  0  0  0
   17.3472    2.7021    5.8930 H   0  0  0  0  0  0  0  0  0  0  0  0
   17.4963    1.5254    7.2013 H   0  0  0  0  0  0  0  0  0  0  0  0
   18.4707    3.0013    7.1966 H   0  0  0  0  0  0  0  0  0  0  0  0
   15.6439    1.2880    4.5276 O   0  0  0  0  0  0  0  0  0  0  0  0
   17.0071    5.2081    6.3906 O   0  0  0  0  0  0  0  0  0  0  0  0
   16.5770    6.4195    5.7293 C   0  0  0  0  0  0  0  0  0  0  0  0
   15.8830    0.1331    3.6993 C   0  0  0  0  0  0  0  0  0  0  0  0
   15.0354   -0.5618    3.7725 H   0  0  0  0  0  0  0  0  0  0  0  0
   17.1732   -0.5718    4.1120 C   0  0  0  0  0  0  0  0  0  0  0  0
   15.9658    0.6355    2.2523 C   0  0  0  0  0  0  0  0  0  0  0  0
   16.6965    1.4520    2.1863 H   0  0  0  0  0  0  0  0  0  0  0  0
   15.0060    1.0764    1.9563 H   0  0  0  0  0  0  0  0  0  0  0  0
   16.3410   -0.4743    1.2787 C   0  0  0  0  0  0  0  0  0  0  0  0
   17.0707   -0.9804    5.1236 H   0  0  0  0  0  0  0  0  0  0  0  0
   17.9918    0.1566    4.1650 H   0  0  0  0  0  0  0  0  0  0  0  0
   17.5295   -1.6924    3.1383 C   0  0  0  0  0  0  0  0  0  0  0  0
   16.7678   -2.4805    3.1938 H   0  0  0  0  0  0  0  0  0  0  0  0
   18.4823   -2.1468    3.4303 H   0  0  0  0  0  0  0  0  0  0  0  0
   15.5270   -1.2050    1.2295 H   0  0  0  0  0  0  0  0  0  0  0  0
   17.6230   -1.1812    1.7028 C   0  0  0  0  0  0  0  0  0  0  0  0
   16.4592   -0.0598    0.2711 H   0  0  0  0  0  0  0  0  0  0  0  0
   18.4677   -0.4871    1.6158 H   0  0  0  0  0  0  0  0  0  0  0  0
   17.8234   -2.0176    1.0239 H   0  0  0  0  0  0  0  0  0  0  0  0
   17.2847    7.6424    6.3075 C   0  0  0  0  0  0  0  0  0  0  0  0
   15.4904    6.5384    5.8384 H   0  0  0  0  0  0  0  0  0  0  0  0
   16.8814    6.2818    4.2302 C   0  0  0  0  0  0  0  0  0  0  0  0
   18.3711    7.4967    6.2641 H   0  0  0  0  0  0  0  0  0  0  0  0
   17.0375    7.7536    7.3691 H   0  0  0  0  0  0  0  0  0  0  0  0
   16.8930    8.9093    5.5483 C   0  0  0  0  0  0  0  0  0  0  0  0
   16.3386    5.4280    3.8095 H   0  0  0  0  0  0  0  0  0  0  0  0
   17.9452    6.0539    4.0869 H   0  0  0  0  0  0  0  0  0  0  0  0
   16.5093    7.5433    3.4573 C   0  0  0  0  0  0  0  0  0  0  0  0
   15.8254    9.1108    5.7040 H   0  0  0  0  0  0  0  0  0  0  0  0
   17.4420    9.7672    5.9511 H   0  0  0  0  0  0  0  0  0  0  0  0
   17.1676    8.7833    4.0510 C   0  0  0  0  0  0  0  0  0  0  0  0
   15.4221    7.6741    3.4726 H   0  0  0  0  0  0  0  0  0  0  0  0
   16.7981    7.4343    2.4056 H   0  0  0  0  0  0  0  0  0  0  0  0
   16.8009    9.6763    3.5318 H   0  0  0  0  0  0  0  0  0  0  0  0
   18.2497    8.7353    3.8807 H   0  0  0  0  0  0  0  0  0  0  0  0
  1  2  1  0  0  0  0
  2  3  1  0  0  0  0
  2  4  1  0  0  0  0
  2  5  1  0  0  0  0
  6  5  2  0  0  0  0
  7  3  1  0  0  0  0
  8  3  1  0  0  0  0
  9  3  1  0  0  0  0
 10  1  1  0  0  0  0
 11  1  1  0  0  0  0
 12  1  1  0  0  0  0
 13  4  1  0  0  0  0
 14  4  1  0  0  0  0
 15  4  1  0  0  0  0
 16 13  1  0  0  0  0
 17 13  1  0  0  0  0
 18 13  1  0  0  0  0
 19 16  1  0  0  0  0
 20 16  1  0  0  0  0
 21 16  1  0  0  0  0
 22 17  2  0  0  0  0
 23 18  1  0  0  0  0
 24 18  1  0  0  0  0
 25 18  1  0  0  0  0
 26 25  1  0  0  0  0
 27 25  1  0  0  0  0
 28 25  1  0  0  0  0
 29 27  1  0  0  0  0
 30 27  1  0  0  0  0
 31 27  1  0  0  0  0
 32 26  2  0  0  0  0
 33 28  1  0  0  0  0
 34 28  1  0  0  0  0
 35 28  1  0  0  0  0
 36 35  1  0  0  0  0
 37 35  1  0  0  0  0
 38 35  1  0  0  0  0
 39 36  1  0  0  0  0
 40 36  1  0  0  0  0
 41 36  1  0  0  0  0
 42 37  2  0  0  0  0
 43 37  1  0  0  0  0
 44 43  1  0  0  0  0
 45 17  1  0  0  0  0
 46 45  1  0  0  0  0
 47  5  1  0  0  0  0
 48 47  1  0  0  0  0
 49 48  1  0  0  0  0
 50 48  1  0  0  0  0
 51 48  1  0  0  0  0
 52 51  1  0  0  0  0
 53 50  1  0  0  0  0
 54 50  1  0  0  0  0
 55 50  1  0  0  0  0
 56 55  1  0  0  0  0
 57 55  1  0  0  0  0
 58 52  1  0  0  0  0
 59 52  1  0  0  0  0
 59 55  1  0  0  0  0
 60 52  1  0  0  0  0
 61 59  1  0  0  0  0
 62 59  1  0  0  0  0
 63 51  1  0  0  0  0
 64 51  1  0  0  0  0
 65 26  1  0  0  0  0
 66 65  1  0  0  0  0
 67 66  1  0  0  0  0
 68 66  1  0  0  0  0
 69 66  1  0  0  0  0
 70 69  1  0  0  0  0
 71 69  1  0  0  0  0
 72 69  1  0  0  0  0
 73 68  1  0  0  0  0
 74 68  1  0  0  0  0
 75 68  1  0  0  0  0
 76 75  1  0  0  0  0
 76 72  1  0  0  0  0
 77 75  1  0  0  0  0
 78 75  1  0  0  0  0
 79 72  1  0  0  0  0
 80 72  1  0  0  0  0
 81 76  1  0  0  0  0
 82 76  1  0  0  0  0
 83 46  1  0  0  0  0
 84 46  1  0  0  0  0
 85 46  1  0  0  0  0
 86 44  1  0  0  0  0
 87 44  1  0  0  0  0
 88 44  1  0  0  0  0
 89 83  1  0  0  0  0
 90 83  1  0  0  0  0
 91 83  1  0  0  0  0
 92 85  1  0  0  0  0
 93 85  1  0  0  0  0
 94 85  1  0  0  0  0
 95 91  1  0  0  0  0
 96 91  1  0  0  0  0
 97 94  1  0  0  0  0
 97 91  1  0  0  0  0
 98 94  1  0  0  0  0
 99 94  1  0  0  0  0
100 97  1  0  0  0  0
101 97  1  0  0  0  0
102 88  1  0  0  0  0
103 88  1  0  0  0  0
104 88  1  0  0  0  0
105 86  1  0  0  0  0
106 86  1  0  0  0  0
107 86  1  0  0  0  0
108104  1  0  0  0  0
108107  1  0  0  0  0
109104  1  0  0  0  0
110104  1  0  0  0  0
111107  1  0  0  0  0
112107  1  0  0  0  0
113108  1  0  0  0  0
114108  1  0  0  0  0
115  8  1  0  0  0  0
116  8  1  0  0  0  0
117116  1  0  0  0  0
118116  1  0  0  0  0
119116  1  0  0  0  0
120115  2  0  0  0  0
121115  1  0  0  0  0
122121  1  0  0  0  0
123122  1  0  0  0  0
124122  1  0  0  0  0
125122  1  0  0  0  0
126123  1  0  0  0  0
127123  1  0  0  0  0
128123  1  0  0  0  0
129125  1  0  0  0  0
130125  1  0  0  0  0
131125  1  0  0  0  0
132128  1  0  0  0  0
133128  1  0  0  0  0
133131  1  0  0  0  0
134128  1  0  0  0  0
135131  1  0  0  0  0
136131  1  0  0  0  0
137133  1  0  0  0  0
138133  1  0  0  0  0
139  8  1  0  0  0  0
140139  1  0  0  0  0
141139  1  0  0  0  0
142139  1  0  0  0  0
143142  1  0  0  0  0
144142  1  0  0  0  0
145142  1  0  0  0  0
146145  1  0  0  0  0
147145  1  0  0  0  0
148145  1  0  0  0  0
149148  1  0  0  0  0
150148  1  0  0  0  0
151148  1  0  0  0  0
152151  1  0  0  0  0
153151  1  0  0  0  0
154151  1  0  0  0  0
155143  1  0  0  0  0
156143  1  0  0  0  0
157143  1  0  0  0  0
158144  2  0  0  0  0
159149  2  0  0  0  0
160150  1  0  0  0  0
161150  1  0  0  0  0
162150  1  0  0  0  0
163149  1  0  0  0  0
164144  1  0  0  0  0
165164  1  0  0  0  0
166163  1  0  0  0  0
167165  1  0  0  0  0
168165  1  0  0  0  0
169165  1  0  0  0  0
170168  1  0  0  0  0
171168  1  0  0  0  0
172168  1  0  0  0  0
173169  1  0  0  0  0
174169  1  0  0  0  0
175169  1  0  0  0  0
176175  1  0  0  0  0
177175  1  0  0  0  0
178172  1  0  0  0  0
178175  1  0  0  0  0
179172  1  0  0  0  0
180172  1  0  0  0  0
181178  1  0  0  0  0
182178  1  0  0  0  0
183166  1  0  0  0  0
184166  1  0  0  0  0
185166  1  0  0  0  0
186183  1  0  0  0  0
187183  1  0  0  0  0
188183  1  0  0  0  0
189185  1  0  0  0  0
190185  1  0  0  0  0
191185  1  0  0  0  0
192191  1  0  0  0  0
193191  1  0  0  0  0
194188  1  0  0  0  0
195188  1  0  0  0  0
195191  1  0  0  0  0
196188  1  0  0  0  0
197195  1  0  0  0  0
198195  1  0  0  0  0
199154  1  0  0  0  0
200154  1  0  0  0  0
201154  1  0  0  0  0
202201  1  0  0  0  0
203201  1  0  0  0  0
204201  1  0  0  0  0
205204  1  0  0  0  0
206204  1  0  0  0  0
207204  1  0  0  0  0
208207  1  0  0  0  0
209207  1  0  0  0  0
210207  1  0  0  0  0
211199  1  0  0  0  0
212199  1  0  0  0  0
213199  1  0  0  0  0
214200  2  0  0  0  0
215205  2  0  0  0  0
216206  1  0  0  0  0
217206  1  0  0  0  0
218206  1  0  0  0  0
219200  1  0  0  0  0
220205  1  0  0  0  0
221220  1  0  0  0  0
222219  1  0  0  0  0
223222  1  0  0  0  0
224222  1  0  0  0  0
225222  1  0  0  0  0
226224  1  0  0  0  0
227224  1  0  0  0  0
228224  1  0  0  0  0
229225  1  0  0  0  0
230225  1  0  0  0  0
231225  1  0  0  0  0
232231  1  0  0  0  0
233231  1  0  0  0  0
234228  1  0  0  0  0
234231  1  0  0  0  0
235228  1  0  0  0  0
236228  1  0  0  0  0
237234  1  0  0  0  0
238234  1  0  0  0  0
239221  1  0  0  0  0
240221  1  0  0  0  0
241221  1  0  0  0  0
242241  1  0  0  0  0
243241  1  0  0  0  0
244241  1  0  0  0  0
245239  1  0  0  0  0
246239  1  0  0  0  0
247239  1  0  0  0  0
248244  1  0  0  0  0
249244  1  0  0  0  0
250247  1  0  0  0  0
251247  1  0  0  0  0
251244  1  0  0  0  0
252247  1  0  0  0  0
253251  1  0  0  0  0
254251  1  0  0  0  0
255210  1  0  0  0  0
256210  1  0  0  0  0
257210  1  0  0  0  0
258257  1  0  0  0  0
259257  1  0  0  0  0
260257  1  0  0  0  0
261260  1  0  0  0  0
262260  1  0  0  0  0
263260  1  0  0  0  0
264263  1  0  0  0  0
265263  1  0  0  0  0
266263  1  0  0  0  0
267255  1  0  0  0  0
268255  1  0  0  0  0
269255  1  0  0  0  0
270256  2  0  0  0  0
271261  2  0  0  0  0
272262  1  0  0  0  0
273262  1  0  0  0  0
274262  1  0  0  0  0
275256  1  0  0  0  0
276261  1  0  0  0  0
277276  1  0  0  0  0
278275  1  0  0  0  0
279278  1  0  0  0  0
280278  1  0  0  0  0
281278  1  0  0  0  0
282281  1  0  0  0  0
283281  1  0  0  0  0
284281  1  0  0  0  0
285280  1  0  0  0  0
286280  1  0  0  0  0
287280  1  0  0  0  0
288287  1  0  0  0  0
289287  1  0  0  0  0
290284  1  0  0  0  0
291284  1  0  0  0  0
291287  1  0  0  0  0
292284  1  0  0  0  0
293291  1  0  0  0  0
294291  1  0  0  0  0
295277  1  0  0  0  0
296277  1  0  0  0  0
297277  1  0  0  0  0
298295  1  0  0  0  0
299295  1  0  0  0  0
300295  1  0  0  0  0
301297  1  0  0  0  0
302297  1  0  0  0  0
303297  1  0  0  0  0
304300  1  0  0  0  0
305300  1  0  0  0  0
306303  1  0  0  0  0
306300  1  0  0  0  0
307303  1  0  0  0  0
308303  1  0  0  0  0
309306  1  0  0  0  0
310306  1  0  0  0  0
M  END
