
 OpenBabel07061214313D

173181  0  0  0  0  0  0  0  0999 V2000
   10.4976    3.7662    2.9625 C   0  0  0  0  0  0  0  0  0  0  0  0
   10.6842    5.1110    3.3379 C   0  0  0  0  0  0  0  0  0  0  0  0
   11.8803    5.7622    2.9868 C   0  0  0  0  0  0  0  0  0  0  0  0
   12.8731    5.1030    2.2620 C   0  0  0  0  0  0  0  0  0  0  0  0
   12.6884    3.7792    1.8841 C   0  0  0  0  0  0  0  0  0  0  0  0
   11.5131    3.1168    2.2356 C   0  0  0  0  0  0  0  0  0  0  0  0
    9.2560    2.9732    3.3189 C   0  0  0  0  0  0  0  0  0  0  0  0
    8.2175    2.9029    2.1772 C   0  0  0  0  0  0  0  0  0  0  0  0
    7.5852    1.4893    1.9981 C   0  0  0  0  0  0  0  0  0  0  0  0
    6.3052    1.5549    1.0920 C   0  0  0  0  0  0  0  0  0  0  0  0
    5.3364    0.3137    1.0741 C   0  0  0  0  0  0  0  0  0  0  0  0
    4.0335    0.6785    0.2487 C   0  0  0  0  0  0  0  0  0  0  0  0
    2.8702   -0.3815    0.1446 C   0  0  0  0  0  0  0  0  0  0  0  0
    1.5083    0.2749   -0.3375 C   0  0  0  0  0  0  0  0  0  0  0  0
    0.1533   -0.5277   -0.1321 C   0  0  0  0  0  0  0  0  0  0  0  0
   -1.0919    0.3267   -0.6271 C   0  0  0  0  0  0  0  0  0  0  0  0
   -2.5507   -0.2786   -0.4723 C   0  0  0  0  0  0  0  0  0  0  0  0
   -3.6811    0.8125   -0.6383 C   0  0  0  0  0  0  0  0  0  0  0  0
   -5.1353    0.4862   -0.0933 C   0  0  0  0  0  0  0  0  0  0  0  0
   -6.0842    1.7273   -0.3067 C   0  0  0  0  0  0  0  0  0  0  0  0
   -7.5412    1.6527    0.2805 C   0  0  0  0  0  0  0  0  0  0  0  0
   -8.2036    3.0661    0.3502 C   0  0  0  0  0  0  0  0  0  0  0  0
   -9.5282    3.0973    1.1719 C   0  0  0  0  0  0  0  0  0  0  0  0
   -9.2567    3.4240    2.6470 C   0  0  0  0  0  0  0  0  0  0  0  0
  -10.5691    4.0468    0.5785 C   0  0  0  0  0  0  0  0  0  0  0  0
  -11.8153    3.5864    0.0864 C   0  0  0  0  0  0  0  0  0  0  0  0
  -12.7300    4.5071   -0.4555 C   0  0  0  0  0  0  0  0  0  0  0  0
  -12.4369    5.8671   -0.5006 C   0  0  0  0  0  0  0  0  0  0  0  0
  -11.2202    6.3264   -0.0119 C   0  0  0  0  0  0  0  0  0  0  0  0
  -10.2939    5.4257    0.5171 C   0  0  0  0  0  0  0  0  0  0  0  0
   -8.5155    0.6534   -0.3654 C   0  0  0  0  0  0  0  0  0  0  0  0
   -9.0389   -0.3472    0.4907 C   0  0  0  0  0  0  0  0  0  0  0  0
   -9.9505   -1.3060    0.0483 C   0  0  0  0  0  0  0  0  0  0  0  0
  -10.3762   -1.2896   -1.2688 C   0  0  0  0  0  0  0  0  0  0  0  0
   -9.9030   -0.3023   -2.1295 C   0  0  0  0  0  0  0  0  0  0  0  0
   -8.9813    0.6806   -1.7016 C   0  0  0  0  0  0  0  0  0  0  0  0
   -5.7560   -0.7757   -0.6732 C   0  0  0  0  0  0  0  0  0  0  0  0
   -6.1192   -1.8793    0.1354 C   0  0  0  0  0  0  0  0  0  0  0  0
   -6.7183   -3.0043   -0.4615 C   0  0  0  0  0  0  0  0  0  0  0  0
   -6.9605   -3.0486   -1.8333 C   0  0  0  0  0  0  0  0  0  0  0  0
   -6.6081   -1.9689   -2.6312 C   0  0  0  0  0  0  0  0  0  0  0  0
   -6.0144   -0.8455   -2.0563 C   0  0  0  0  0  0  0  0  0  0  0  0
   -2.8113   -1.5145   -1.3400 C   0  0  0  0  0  0  0  0  0  0  0  0
   -3.0505   -2.7216   -0.6410 C   0  0  0  0  0  0  0  0  0  0  0  0
   -3.3211   -3.9235   -1.2942 C   0  0  0  0  0  0  0  0  0  0  0  0
   -3.3634   -3.9555   -2.6765 C   0  0  0  0  0  0  0  0  0  0  0  0
   -3.1349   -2.7853   -3.3969 C   0  0  0  0  0  0  0  0  0  0  0  0
   -2.8525   -1.5572   -2.7554 C   0  0  0  0  0  0  0  0  0  0  0  0
    0.2035   -1.9081   -0.7651 C   0  0  0  0  0  0  0  0  0  0  0  0
    0.1131   -3.0939    0.0021 C   0  0  0  0  0  0  0  0  0  0  0  0
    0.1711   -4.3407   -0.6477 C   0  0  0  0  0  0  0  0  0  0  0  0
    0.3158   -4.4254   -2.0318 C   0  0  0  0  0  0  0  0  0  0  0  0
    0.4035   -3.2655   -2.7892 C   0  0  0  0  0  0  0  0  0  0  0  0
    0.3473   -2.0215   -2.1617 C   0  0  0  0  0  0  0  0  0  0  0  0
    3.2889   -1.6251   -0.6467 C   0  0  0  0  0  0  0  0  0  0  0  0
    3.3564   -2.8323    0.0893 C   0  0  0  0  0  0  0  0  0  0  0  0
    3.7379   -4.0421   -0.4904 C   0  0  0  0  0  0  0  0  0  0  0  0
    4.0652   -4.0829   -1.8332 C   0  0  0  0  0  0  0  0  0  0  0  0
    4.0099   -2.9136   -2.5886 C   0  0  0  0  0  0  0  0  0  0  0  0
    3.6270   -1.6762   -2.0211 C   0  0  0  0  0  0  0  0  0  0  0  0
    6.0663   -0.9312    0.5915 C   0  0  0  0  0  0  0  0  0  0  0  0
    6.2610   -2.0621    1.4211 C   0  0  0  0  0  0  0  0  0  0  0  0
    6.9756   -3.1675    0.9234 C   0  0  0  0  0  0  0  0  0  0  0  0
    7.4935   -3.1687   -0.3699 C   0  0  0  0  0  0  0  0  0  0  0  0
    7.3054   -2.0632   -1.1889 C   0  0  0  0  0  0  0  0  0  0  0  0
    6.6014   -0.9581   -0.7114 C   0  0  0  0  0  0  0  0  0  0  0  0
    8.6794    0.4759    1.6290 C   0  0  0  0  0  0  0  0  0  0  0  0
    8.9804   -0.5002    2.6105 C   0  0  0  0  0  0  0  0  0  0  0  0
    9.9745   -1.4617    2.4275 C   0  0  0  0  0  0  0  0  0  0  0  0
   10.7118   -1.4695    1.2564 C   0  0  0  0  0  0  0  0  0  0  0  0
   10.4582   -0.5084    0.2814 C   0  0  0  0  0  0  0  0  0  0  0  0
    9.4506    0.4699    0.4432 C   0  0  0  0  0  0  0  0  0  0  0  0
    9.6604    5.8600    4.1435 C   0  0  0  0  0  0  0  0  0  0  0  0
   12.0496    6.7953    3.2829 H   0  0  0  0  0  0  0  0  0  0  0  0
   13.7913    5.6213    1.9995 H   0  0  0  0  0  0  0  0  0  0  0  0
   13.4591    3.2567    1.3240 H   0  0  0  0  0  0  0  0  0  0  0  0
   11.3947    2.0743    1.9467 H   0  0  0  0  0  0  0  0  0  0  0  0
    9.5855    1.9797    3.6409 H   0  0  0  0  0  0  0  0  0  0  0  0
    8.7763    3.3901    4.2119 H   0  0  0  0  0  0  0  0  0  0  0  0
    7.4220    3.6222    2.4125 H   0  0  0  0  0  0  0  0  0  0  0  0
    8.6476    3.2502    1.2327 H   0  0  0  0  0  0  0  0  0  0  0  0
    7.1985    1.2164    2.9910 H   0  0  0  0  0  0  0  0  0  0  0  0
    5.7067    2.4023    1.4561 H   0  0  0  0  0  0  0  0  0  0  0  0
    6.5683    1.8219    0.0670 H   0  0  0  0  0  0  0  0  0  0  0  0
    3.6078    1.5674    0.7358 H   0  0  0  0  0  0  0  0  0  0  0  0
    4.3262    1.0188   -0.7467 H   0  0  0  0  0  0  0  0  0  0  0  0
    2.6746   -0.6834    1.1835 H   0  0  0  0  0  0  0  0  0  0  0  0
    1.3893    1.2133    0.2224 H   0  0  0  0  0  0  0  0  0  0  0  0
    1.5883    0.5799   -1.3831 H   0  0  0  0  0  0  0  0  0  0  0  0
    0.0291   -0.6210    0.9521 H   0  0  0  0  0  0  0  0  0  0  0  0
   -1.0695    1.2585   -0.0443 H   0  0  0  0  0  0  0  0  0  0  0  0
   -0.9185    0.6374   -1.6589 H   0  0  0  0  0  0  0  0  0  0  0  0
   -2.6086   -0.5795    0.5837 H   0  0  0  0  0  0  0  0  0  0  0  0
   -3.3470    1.7063   -0.0928 H   0  0  0  0  0  0  0  0  0  0  0  0
   -3.7523    1.1283   -1.6818 H   0  0  0  0  0  0  0  0  0  0  0  0
   -5.0215    0.3781    0.9908 H   0  0  0  0  0  0  0  0  0  0  0  0
   -5.5872    2.5781    0.1808 H   0  0  0  0  0  0  0  0  0  0  0  0
   -6.1070    1.9863   -1.3665 H   0  0  0  0  0  0  0  0  0  0  0  0
   -7.3947    1.3481    1.3267 H   0  0  0  0  0  0  0  0  0  0  0  0
   -7.4915    3.7735    0.7954 H   0  0  0  0  0  0  0  0  0  0  0  0
   -8.3785    3.4362   -0.6641 H   0  0  0  0  0  0  0  0  0  0  0  0
   -9.9621    2.0981    1.1845 H   0  0  0  0  0  0  0  0  0  0  0  0
  -10.1886    3.4204    3.2240 H   0  0  0  0  0  0  0  0  0  0  0  0
   -8.5869    2.6798    3.0906 H   0  0  0  0  0  0  0  0  0  0  0  0
   -8.7925    4.4077    2.7731 H   0  0  0  0  0  0  0  0  0  0  0  0
  -12.2083    2.1328    0.0943 C   0  0  0  0  0  0  0  0  0  0  0  0
  -13.6854    4.1635   -0.8475 H   0  0  0  0  0  0  0  0  0  0  0  0
  -13.1588    6.5638   -0.9175 H   0  0  0  0  0  0  0  0  0  0  0  0
  -10.9896    7.3875   -0.0433 H   0  0  0  0  0  0  0  0  0  0  0  0
   -9.3472    5.8122    0.8869 H   0  0  0  0  0  0  0  0  0  0  0  0
   -8.7285   -0.3891    1.5325 H   0  0  0  0  0  0  0  0  0  0  0  0
  -10.3147   -2.0666    0.7322 H   0  0  0  0  0  0  0  0  0  0  0  0
  -11.0768   -2.0370   -1.6282 H   0  0  0  0  0  0  0  0  0  0  0  0
  -10.2659   -0.2983   -3.1556 H   0  0  0  0  0  0  0  0  0  0  0  0
   -8.6227    1.7331   -2.7142 C   0  0  0  0  0  0  0  0  0  0  0  0
   -5.8943   -1.8967    1.6227 C   0  0  0  0  0  0  0  0  0  0  0  0
   -7.0043   -3.8598    0.1447 H   0  0  0  0  0  0  0  0  0  0  0  0
   -7.4227   -3.9243   -2.2773 H   0  0  0  0  0  0  0  0  0  0  0  0
   -6.7924   -1.9962   -3.7003 H   0  0  0  0  0  0  0  0  0  0  0  0
   -5.7547   -0.0129   -2.7036 H   0  0  0  0  0  0  0  0  0  0  0  0
   -3.0313   -2.7334    0.4454 H   0  0  0  0  0  0  0  0  0  0  0  0
   -3.4999   -4.8245   -0.7168 H   0  0  0  0  0  0  0  0  0  0  0  0
   -3.5765   -4.8845   -3.1945 H   0  0  0  0  0  0  0  0  0  0  0  0
   -3.1807   -2.8364   -4.4821 H   0  0  0  0  0  0  0  0  0  0  0  0
   -2.6535   -0.3699   -3.6567 C   0  0  0  0  0  0  0  0  0  0  0  0
   -0.0458   -3.0738    1.4976 C   0  0  0  0  0  0  0  0  0  0  0  0
    0.1034   -5.2614   -0.0747 H   0  0  0  0  0  0  0  0  0  0  0  0
    0.3588   -5.3950   -2.5170 H   0  0  0  0  0  0  0  0  0  0  0  0
    0.5140   -3.3232   -3.8671 H   0  0  0  0  0  0  0  0  0  0  0  0
    0.4147   -1.1300   -2.7783 H   0  0  0  0  0  0  0  0  0  0  0  0
    3.1069   -2.8389    1.1466 H   0  0  0  0  0  0  0  0  0  0  0  0
    3.7762   -4.9431    0.1132 H   0  0  0  0  0  0  0  0  0  0  0  0
    4.3626   -5.0187   -2.2948 H   0  0  0  0  0  0  0  0  0  0  0  0
    4.2720   -2.9738   -3.6419 H   0  0  0  0  0  0  0  0  0  0  0  0
    3.6152   -0.4949   -2.9519 C   0  0  0  0  0  0  0  0  0  0  0  0
    5.7306   -2.1321    2.8271 C   0  0  0  0  0  0  0  0  0  0  0  0
    7.1343   -4.0437    1.5474 H   0  0  0  0  0  0  0  0  0  0  0  0
    8.0395   -4.0313   -0.7377 H   0  0  0  0  0  0  0  0  0  0  0  0
    7.7022   -2.0584   -2.1987 H   0  0  0  0  0  0  0  0  0  0  0  0
    6.4721   -0.1062   -1.3735 H   0  0  0  0  0  0  0  0  0  0  0  0
    8.4281   -0.5191    3.5475 H   0  0  0  0  0  0  0  0  0  0  0  0
   10.1635   -2.2025    3.1987 H   0  0  0  0  0  0  0  0  0  0  0  0
   11.4837   -2.2169    1.0992 H   0  0  0  0  0  0  0  0  0  0  0  0
   11.0599   -0.5243   -0.6255 H   0  0  0  0  0  0  0  0  0  0  0  0
    9.3463    1.4889   -0.6580 C   0  0  0  0  0  0  0  0  0  0  0  0
  -12.1389    1.7139    1.1027 H   0  0  0  0  0  0  0  0  0  0  0  0
  -11.5708    1.5720   -0.5904 H   0  0  0  0  0  0  0  0  0  0  0  0
  -13.2430    1.9910   -0.2372 H   0  0  0  0  0  0  0  0  0  0  0  0
   -7.5561    1.9449   -2.7359 H   0  0  0  0  0  0  0  0  0  0  0  0
   -9.1833    2.6518   -2.5225 H   0  0  0  0  0  0  0  0  0  0  0  0
   -8.8777    1.4064   -3.7294 H   0  0  0  0  0  0  0  0  0  0  0  0
   -6.4470   -1.0853    2.1053 H   0  0  0  0  0  0  0  0  0  0  0  0
   -4.8294   -1.7965    1.8521 H   0  0  0  0  0  0  0  0  0  0  0  0
   -6.2379   -2.8350    2.0710 H   0  0  0  0  0  0  0  0  0  0  0  0
   -1.7360    0.1698   -3.4291 H   0  0  0  0  0  0  0  0  0  0  0  0
   -3.5084    0.3069   -3.6102 H   0  0  0  0  0  0  0  0  0  0  0  0
   -2.5591   -0.6809   -4.7039 H   0  0  0  0  0  0  0  0  0  0  0  0
   -0.9711   -2.5622    1.7791 H   0  0  0  0  0  0  0  0  0  0  0  0
    0.8040   -2.5707    1.9685 H   0  0  0  0  0  0  0  0  0  0  0  0
   -0.0946   -4.0866    1.9111 H   0  0  0  0  0  0  0  0  0  0  0  0
    4.3349    0.2645   -2.6465 H   0  0  0  0  0  0  0  0  0  0  0  0
    2.6195   -0.0601   -3.0370 H   0  0  0  0  0  0  0  0  0  0  0  0
    3.9017   -0.7886   -3.9687 H   0  0  0  0  0  0  0  0  0  0  0  0
    9.9568    2.3645   -0.4205 H   0  0  0  0  0  0  0  0  0  0  0  0
    8.3242    1.8039   -0.8498 H   0  0  0  0  0  0  0  0  0  0  0  0
    9.7109    1.0761   -1.6062 H   0  0  0  0  0  0  0  0  0  0  0  0
    9.6042    5.4472    5.1559 H   0  0  0  0  0  0  0  0  0  0  0  0
    8.6775    5.8007    3.6663 H   0  0  0  0  0  0  0  0  0  0  0  0
    9.9159    6.9215    4.2301 H   0  0  0  0  0  0  0  0  0  0  0  0
    5.0004    0.1725    2.1069 H   0  0  0  0  0  0  0  0  0  0  0  0
    4.6405   -2.0437    2.8329 H   0  0  0  0  0  0  0  0  0  0  0  0
    6.1593   -1.3364    3.4427 H   0  0  0  0  0  0  0  0  0  0  0  0
    5.9830   -3.0845    3.3057 H   0  0  0  0  0  0  0  0  0  0  0  0
  1  2  2  0  0  0  0
  1  6  1  0  0  0  0
  1  7  1  0  0  0  0
  2  3  1  0  0  0  0
  2 73  1  0  0  0  0
  3  4  2  0  0  0  0
  3 74  1  0  0  0  0
  4  5  1  0  0  0  0
  4 75  1  0  0  0  0
  5  6  2  0  0  0  0
  5 76  1  0  0  0  0
  6 77  1  0  0  0  0
  7  8  1  0  0  0  0
  7 78  1  0  0  0  0
  7 79  1  0  0  0  0
  8  9  1  0  0  0  0
  8 80  1  0  0  0  0
  8 81  1  0  0  0  0
  9 10  1  0  0  0  0
  9 67  1  0  0  0  0
  9 82  1  0  0  0  0
 10 11  1  0  0  0  0
 10 83  1  0  0  0  0
 10 84  1  0  0  0  0
 11 12  1  0  0  0  0
 11 61  1  0  0  0  0
 12 13  1  0  0  0  0
 12 85  1  0  0  0  0
 12 86  1  0  0  0  0
 13 14  1  0  0  0  0
 13 55  1  0  0  0  0
 13 87  1  0  0  0  0
 14 15  1  0  0  0  0
 14 88  1  0  0  0  0
 14 89  1  0  0  0  0
 15 16  1  0  0  0  0
 15 49  1  0  0  0  0
 15 90  1  0  0  0  0
 16 17  1  0  0  0  0
 16 91  1  0  0  0  0
 16 92  1  0  0  0  0
 17 18  1  0  0  0  0
 17 43  1  0  0  0  0
 17 93  1  0  0  0  0
 18 19  1  0  0  0  0
 18 94  1  0  0  0  0
 18 95  1  0  0  0  0
 19 20  1  0  0  0  0
 19 37  1  0  0  0  0
 19 96  1  0  0  0  0
 20 21  1  0  0  0  0
 20 97  1  0  0  0  0
 20 98  1  0  0  0  0
 21 22  1  0  0  0  0
 21 31  1  0  0  0  0
 21 99  1  0  0  0  0
 22 23  1  0  0  0  0
 22100  1  0  0  0  0
 22101  1  0  0  0  0
 23 24  1  0  0  0  0
 23 25  1  0  0  0  0
 23102  1  0  0  0  0
 24103  1  0  0  0  0
 24104  1  0  0  0  0
 24105  1  0  0  0  0
 25 26  2  0  0  0  0
 25 30  1  0  0  0  0
 26 27  1  0  0  0  0
 26106  1  0  0  0  0
 27 28  2  0  0  0  0
 27107  1  0  0  0  0
 28 29  1  0  0  0  0
 28108  1  0  0  0  0
 29 30  2  0  0  0  0
 29109  1  0  0  0  0
 30110  1  0  0  0  0
 31 32  2  0  0  0  0
 31 36  1  0  0  0  0
 32 33  1  0  0  0  0
 32111  1  0  0  0  0
 33 34  2  0  0  0  0
 33112  1  0  0  0  0
 34 35  1  0  0  0  0
 34113  1  0  0  0  0
 35 36  2  0  0  0  0
 35114  1  0  0  0  0
 36115  1  0  0  0  0
 37 38  2  0  0  0  0
 37 42  1  0  0  0  0
 38 39  1  0  0  0  0
 38116  1  0  0  0  0
 39 40  2  0  0  0  0
 39117  1  0  0  0  0
 40 41  1  0  0  0  0
 40118  1  0  0  0  0
 41 42  2  0  0  0  0
 41119  1  0  0  0  0
 42120  1  0  0  0  0
 43 44  2  0  0  0  0
 43 48  1  0  0  0  0
 44 45  1  0  0  0  0
 44121  1  0  0  0  0
 45 46  2  0  0  0  0
 45122  1  0  0  0  0
 46 47  1  0  0  0  0
 46123  1  0  0  0  0
 47 48  2  0  0  0  0
 47124  1  0  0  0  0
 48125  1  0  0  0  0
 49 50  2  0  0  0  0
 49 54  1  0  0  0  0
 50 51  1  0  0  0  0
 50126  1  0  0  0  0
 51 52  2  0  0  0  0
 51127  1  0  0  0  0
 52 53  1  0  0  0  0
 52128  1  0  0  0  0
 53 54  2  0  0  0  0
 53129  1  0  0  0  0
 54130  1  0  0  0  0
 55 56  2  0  0  0  0
 55 60  1  0  0  0  0
 56 57  1  0  0  0  0
 56131  1  0  0  0  0
 57 58  2  0  0  0  0
 57132  1  0  0  0  0
 58 59  1  0  0  0  0
 58133  1  0  0  0  0
 59 60  2  0  0  0  0
 59134  1  0  0  0  0
 60135  1  0  0  0  0
 61 62  2  0  0  0  0
 61 66  1  0  0  0  0
 62 63  1  0  0  0  0
 62136  1  0  0  0  0
 63 64  2  0  0  0  0
 63137  1  0  0  0  0
 64 65  1  0  0  0  0
 64138  1  0  0  0  0
 65 66  2  0  0  0  0
 65139  1  0  0  0  0
 66140  1  0  0  0  0
 67 68  2  0  0  0  0
 67 72  1  0  0  0  0
 68 69  1  0  0  0  0
 68141  1  0  0  0  0
 69 70  2  0  0  0  0
 69142  1  0  0  0  0
 70 71  1  0  0  0  0
 70143  1  0  0  0  0
 71 72  2  0  0  0  0
 71144  1  0  0  0  0
 72145  1  0  0  0  0
146106  1  0  0  0  0
147106  1  0  0  0  0
148106  1  0  0  0  0
149115  1  0  0  0  0
150115  1  0  0  0  0
151115  1  0  0  0  0
152116  1  0  0  0  0
153116  1  0  0  0  0
154116  1  0  0  0  0
155125  1  0  0  0  0
156125  1  0  0  0  0
157125  1  0  0  0  0
158126  1  0  0  0  0
159126  1  0  0  0  0
160126  1  0  0  0  0
161135  1  0  0  0  0
162135  1  0  0  0  0
163135  1  0  0  0  0
164145  1  0  0  0  0
165145  1  0  0  0  0
166145  1  0  0  0  0
167 73  1  0  0  0  0
168 73  1  0  0  0  0
169 73  1  0  0  0  0
170 11  1  0  0  0  0
171136  1  0  0  0  0
172136  1  0  0  0  0
173136  1  0  0  0  0
M  END
