
 OpenBabel10101311163D

121120  0  0  1  0  0  0  0  0999 V2000
    0.0609   -0.3822   -0.1294 C   0  0  1  0  0  0  0  0  0  0  0  0
   -1.0746   -0.4901   -1.1803 C   0  0  0  0  0  0  0  0  0  0  0  0
    0.0242   -1.5632    0.7579 C   0  0  0  0  0  0  0  0  0  0  0  0
    1.4533   -0.2857   -0.8043 C   0  0  0  0  0  0  0  0  0  0  0  0
   -0.1004    0.5180    0.4735 H   0  0  0  0  0  0  0  0  0  0  0  0
   -2.4821   -0.3016   -0.5577 C   0  0  1  0  0  0  0  0  0  0  0  0
   -1.0210   -1.4703   -1.6727 H   0  0  0  0  0  0  0  0  0  0  0  0
   -0.9216    0.2661   -1.9620 H   0  0  0  0  0  0  0  0  0  0  0  0
    0.0002   -2.5056    1.4317 N   0  0  0  0  0  0  0  0  0  0  0  0
    1.4165    0.4568   -1.6129 H   0  0  0  0  0  0  0  0  0  0  0  0
    1.6971   -1.2498   -1.2703 H   0  0  0  0  0  0  0  0  0  0  0  0
    2.5738    0.1039    0.1946 C   0  0  2  0  0  0  0  0  0  0  0  0
    2.4892   -0.5305    1.0836 H   0  0  0  0  0  0  0  0  0  0  0  0
    2.4039    1.5149    0.5986 C   0  0  0  0  0  0  0  0  0  0  0  0
    3.9806   -0.0957   -0.4267 C   0  0  0  0  0  0  0  0  0  0  0  0
   -2.6468    1.1044   -0.1333 C   0  0  0  0  0  0  0  0  0  0  0  0
   -2.5679   -0.9493    0.3216 H   0  0  0  0  0  0  0  0  0  0  0  0
   -3.6044   -0.6745   -1.5613 C   0  0  0  0  0  0  0  0  0  0  0  0
   -3.3811   -1.6509   -2.0119 H   0  0  0  0  0  0  0  0  0  0  0  0
   -3.6146    0.0578   -2.3797 H   0  0  0  0  0  0  0  0  0  0  0  0
   -5.0046   -0.7245   -0.8966 C   0  0  2  0  0  0  0  0  0  0  0  0
    2.2740    2.6284    0.8919 N   0  0  0  0  0  0  0  0  0  0  0  0
   -2.7735    2.2139    0.1753 N   0  0  0  0  0  0  0  0  0  0  0  0
    5.1255    0.0687    0.6058 C   0  0  1  0  0  0  0  0  0  0  0  0
    5.0755   -1.0360    1.5850 C   0  0  0  0  0  0  0  0  0  0  0  0
    4.9828    1.0161    1.1366 H   0  0  0  0  0  0  0  0  0  0  0  0
    6.5151    0.0886   -0.0842 C   0  0  0  0  0  0  0  0  0  0  0  0
   -5.1454    0.1878   -0.3073 H   0  0  0  0  0  0  0  0  0  0  0  0
   -5.0803   -1.8898    0.0089 C   0  0  0  0  0  0  0  0  0  0  0  0
   -6.1389   -0.8125   -1.9508 C   0  0  0  0  0  0  0  0  0  0  0  0
   -6.1199   -1.8043   -2.4221 H   0  0  0  0  0  0  0  0  0  0  0  0
   -5.9564   -0.0790   -2.7475 H   0  0  0  0  0  0  0  0  0  0  0  0
   -7.5392   -0.5589   -1.3336 C   0  0  1  0  0  0  0  0  0  0  0  0
    5.0382   -1.9165    2.3377 N   0  0  0  0  0  0  0  0  0  0  0  0
   -5.1351   -2.8175    0.7006 N   0  0  0  0  0  0  0  0  0  0  0  0
    6.4852    0.7695   -0.9453 H   0  0  0  0  0  0  0  0  0  0  0  0
    6.7384   -0.9119   -0.4785 H   0  0  0  0  0  0  0  0  0  0  0  0
    7.6507    0.5285    0.8752 C   0  0  2  0  0  0  0  0  0  0  0  0
    7.5853   -0.0670    1.7925 H   0  0  0  0  0  0  0  0  0  0  0  0
    7.4794    1.9558    1.2186 C   0  0  0  0  0  0  0  0  0  0  0  0
    9.0528    0.3183    0.2443 C   0  0  0  0  0  0  0  0  0  0  0  0
   -7.6577    0.8632   -0.9486 C   0  0  0  0  0  0  0  0  0  0  0  0
   -7.6439   -1.1783   -0.4362 H   0  0  0  0  0  0  0  0  0  0  0  0
   -8.6778   -0.9182   -2.3227 C   0  0  0  0  0  0  0  0  0  0  0  0
   -8.4715   -1.8960   -2.7786 H   0  0  0  0  0  0  0  0  0  0  0  0
   -8.6928   -0.1850   -3.1402 H   0  0  0  0  0  0  0  0  0  0  0  0
  -10.0692   -0.9571   -1.6355 C   0  0  2  0  0  0  0  0  0  0  0  0
    7.3478    3.0812    1.4613 N   0  0  0  0  0  0  0  0  0  0  0  0
   -7.7482    1.9850   -0.6742 N   0  0  0  0  0  0  0  0  0  0  0  0
    9.1974    1.0453   -0.5659 H   0  0  0  0  0  0  0  0  0  0  0  0
    9.1052   -0.6795   -0.2114 H   0  0  0  0  0  0  0  0  0  0  0  0
   10.1904    0.4687    1.2879 C   0  0  1  0  0  0  0  0  0  0  0  0
   10.1907   -0.7077    2.1828 C   0  0  0  0  0  0  0  0  0  0  0  0
   10.0003    1.3653    1.8877 H   0  0  0  0  0  0  0  0  0  0  0  0
   11.5817    0.6106    0.6175 C   0  0  0  0  0  0  0  0  0  0  0  0
  -10.1925   -0.0503   -1.0336 H   0  0  0  0  0  0  0  0  0  0  0  0
  -10.1415   -2.1354   -0.7467 C   0  0  0  0  0  0  0  0  0  0  0  0
  -11.2139   -1.0192   -2.6780 C   0  0  0  0  0  0  0  0  0  0  0  0
  -11.1694   -1.9848   -3.2000 H   0  0  0  0  0  0  0  0  0  0  0  0
  -11.0559   -0.2420   -3.4377 H   0  0  0  0  0  0  0  0  0  0  0  0
  -12.6229   -0.8412   -2.0503 C   0  0  1  0  0  0  0  0  0  0  0  0
   10.1941   -1.6447    2.8644 N   0  0  0  0  0  0  0  0  0  0  0  0
  -10.1901   -3.0747   -0.0706 N   0  0  0  0  0  0  0  0  0  0  0  0
    4.1211    0.6268   -1.2419 H   0  0  0  0  0  0  0  0  0  0  0  0
    4.0402   -1.0962   -0.8756 H   0  0  0  0  0  0  0  0  0  0  0  0
   11.5222    1.3405   -0.2009 H   0  0  0  0  0  0  0  0  0  0  0  0
   11.8669   -0.3494    0.1670 H   0  0  0  0  0  0  0  0  0  0  0  0
   12.6751    1.0575    1.6242 C   0  0  2  0  0  0  0  0  0  0  0  0
   12.6006    0.4326    2.5206 H   0  0  0  0  0  0  0  0  0  0  0  0
   12.4475    2.4668    2.0076 C   0  0  0  0  0  0  0  0  0  0  0  0
   14.1003    0.9108    1.0330 C   0  0  0  0  0  0  0  0  0  0  0  0
  -12.7839    0.5430   -1.5621 C   0  0  0  0  0  0  0  0  0  0  0  0
  -12.7192   -1.5291   -1.2039 H   0  0  0  0  0  0  0  0  0  0  0  0
  -13.7322   -1.1537   -3.0851 C   0  0  0  0  0  0  0  0  0  0  0  0
  -13.4650   -2.0683   -3.6324 H   0  0  0  0  0  0  0  0  0  0  0  0
  -13.7744   -0.3462   -3.8287 H   0  0  0  0  0  0  0  0  0  0  0  0
  -15.1392   -1.3449   -2.4540 C   0  0  2  0  0  0  0  0  0  0  0  0
  -12.9034    1.6388   -1.2059 N   0  0  0  0  0  0  0  0  0  0  0  0
   12.2730    3.5784    2.2831 N   0  0  0  0  0  0  0  0  0  0  0  0
   14.2526    1.6738    0.2576 H   0  0  0  0  0  0  0  0  0  0  0  0
   14.1922   -0.0654    0.5381 H   0  0  0  0  0  0  0  0  0  0  0  0
   15.2088    1.0411    2.1130 C   0  0  1  0  0  0  0  0  0  0  0  0
   15.1736   -0.1425    2.9961 C   0  0  0  0  0  0  0  0  0  0  0  0
   15.0161    1.9384    2.7112 H   0  0  0  0  0  0  0  0  0  0  0  0
   16.6091    1.1677    1.4646 C   0  0  0  0  0  0  0  0  0  0  0  0
   15.1462   -1.0858    3.6681 N   0  0  0  0  0  0  0  0  0  0  0  0
  -15.3781   -0.4823   -1.8219 H   0  0  0  0  0  0  0  0  0  0  0  0
  -15.1367   -2.5740   -1.6346 C   0  0  0  0  0  0  0  0  0  0  0  0
  -16.2037   -1.4647   -3.5735 C   0  0  0  0  0  0  0  0  0  0  0  0
  -15.9410   -2.3234   -4.2066 H   0  0  0  0  0  0  0  0  0  0  0  0
  -16.1458   -0.5756   -4.2168 H   0  0  0  0  0  0  0  0  0  0  0  0
  -17.6638   -1.6395   -3.0694 C   0  0  1  0  0  0  0  0  0  0  0  0
  -15.1212   -3.5606   -1.0275 N   0  0  0  0  0  0  0  0  0  0  0  0
   17.7447    1.4608    2.4820 C   0  0  2  0  0  0  0  0  0  0  0  0
   17.7073    0.7149    3.2834 H   0  0  0  0  0  0  0  0  0  0  0  0
   17.5626    2.8043    3.0665 C   0  0  0  0  0  0  0  0  0  0  0  0
   19.1227    1.3725    1.7873 C   0  0  0  0  0  0  0  0  0  0  0  0
   17.4232    3.8677    3.5055 N   0  0  0  0  0  0  0  0  0  0  0  0
  -18.1530   -0.3698   -2.5027 C   0  0  0  0  0  0  0  0  0  0  0  0
  -18.5630   -2.0992   -4.2437 C   0  0  0  0  0  0  0  0  0  0  0  0
  -18.0574   -2.9474   -4.7266 H   0  0  0  0  0  0  0  0  0  0  0  0
  -18.5961   -1.3132   -5.0115 H   0  0  0  0  0  0  0  0  0  0  0  0
  -20.0036   -2.5785   -3.9282 C   0  0  1  0  0  0  0  0  0  0  0  0
   16.5845    1.9685    0.7129 H   0  0  0  0  0  0  0  0  0  0  0  0
   16.8403    0.2383    0.9264 H   0  0  0  0  0  0  0  0  0  0  0  0
  -17.6732   -2.4146   -2.2970 H   0  0  0  0  0  0  0  0  0  0  0  0
  -18.5187    0.6465   -2.0825 N   0  0  0  0  0  0  0  0  0  0  0  0
   19.2021    2.1651    1.0312 H   0  0  0  0  0  0  0  0  0  0  0  0
   19.1953    0.4174    1.2505 H   0  0  0  0  0  0  0  0  0  0  0  0
   20.3215    1.4972    2.7412 C   0  0  0  0  0  0  0  0  0  0  0  0
   20.4156    0.3483    3.6512 C   0  0  0  0  0  0  0  0  0  0  0  0
   20.2698    2.4284    3.3153 H   0  0  0  0  0  0  0  0  0  0  0  0
   21.2391    1.5497    2.1437 H   0  0  0  0  0  0  0  0  0  0  0  0
   20.4616   -0.5693    4.3583 N   0  0  0  0  0  0  0  0  0  0  0  0
  -20.1751   -3.4750   -4.5402 H   0  0  0  0  0  0  0  0  0  0  0  0
  -20.2115   -2.9678   -2.5242 C   0  0  0  0  0  0  0  0  0  0  0  0
  -21.0588   -1.5637   -4.3641 C   0  0  0  0  0  0  0  0  0  0  0  0
  -22.0678   -1.9627   -4.2048 H   0  0  0  0  0  0  0  0  0  0  0  0
  -20.9613   -1.3381   -5.4317 H   0  0  0  0  0  0  0  0  0  0  0  0
  -20.9803   -0.6261   -3.8052 H   0  0  0  0  0  0  0  0  0  0  0  0
  -20.3456   -3.2674   -1.4122 N   0  0  0  0  0  0  0  0  0  0  0  0
  1  2  1  0  0  0  0
  1  3  1  0  0  0  0
  1  4  1  0  0  0  0
  1  5  1  1  0  0  0
  6  2  1  0  0  0  0
  6 17  1  1  0  0  0
  7  2  1  0  0  0  0
  8  2  1  0  0  0  0
  9  3  3  0  0  0  0
 10  4  1  0  0  0  0
 11  4  1  0  0  0  0
 12  4  1  0  0  0  0
 12 13  1  1  0  0  0
 14 12  1  0  0  0  0
 15 12  1  0  0  0  0
 16  6  1  0  0  0  0
 18  6  1  0  0  0  0
 19 18  1  0  0  0  0
 20 18  1  0  0  0  0
 21 18  1  0  0  0  0
 21 28  1  1  0  0  0
 22 14  3  0  0  0  0
 23 16  3  0  0  0  0
 24 15  1  0  0  0  0
 24 26  1  1  0  0  0
 25 24  1  0  0  0  0
 27 24  1  0  0  0  0
 29 21  1  0  0  0  0
 30 21  1  0  0  0  0
 31 30  1  0  0  0  0
 32 30  1  0  0  0  0
 33 30  1  0  0  0  0
 33 43  1  1  0  0  0
 34 25  3  0  0  0  0
 35 29  3  0  0  0  0
 36 27  1  0  0  0  0
 37 27  1  0  0  0  0
 38 27  1  0  0  0  0
 38 39  1  1  0  0  0
 40 38  1  0  0  0  0
 41 38  1  0  0  0  0
 42 33  1  0  0  0  0
 44 33  1  0  0  0  0
 45 44  1  0  0  0  0
 46 44  1  0  0  0  0
 47 44  1  0  0  0  0
 47 56  1  1  0  0  0
 48 40  3  0  0  0  0
 49 42  3  0  0  0  0
 50 41  1  0  0  0  0
 51 41  1  0  0  0  0
 52 41  1  0  0  0  0
 52 54  1  1  0  0  0
 53 52  1  0  0  0  0
 55 52  1  0  0  0  0
 57 47  1  0  0  0  0
 58 47  1  0  0  0  0
 59 58  1  0  0  0  0
 60 58  1  0  0  0  0
 61 58  1  0  0  0  0
 61 73  1  1  0  0  0
 62 53  3  0  0  0  0
 63 57  3  0  0  0  0
 64 15  1  0  0  0  0
 65 15  1  0  0  0  0
 66 55  1  0  0  0  0
 67 55  1  0  0  0  0
 68 55  1  0  0  0  0
 68 69  1  1  0  0  0
 70 68  1  0  0  0  0
 71 68  1  0  0  0  0
 72 61  1  0  0  0  0
 74 61  1  0  0  0  0
 75 74  1  0  0  0  0
 76 74  1  0  0  0  0
 77 74  1  0  0  0  0
 77 87  1  1  0  0  0
 78 72  3  0  0  0  0
 79 70  3  0  0  0  0
 80 71  1  0  0  0  0
 81 71  1  0  0  0  0
 82 71  1  0  0  0  0
 82 84  1  1  0  0  0
 83 82  1  0  0  0  0
 85 82  1  0  0  0  0
 86 83  3  0  0  0  0
 88 77  1  0  0  0  0
 89 77  1  0  0  0  0
 90 89  1  0  0  0  0
 91 89  1  0  0  0  0
 92 89  1  0  0  0  0
 92106  1  1  0  0  0
 93 88  3  0  0  0  0
 94 85  1  0  0  0  0
 94 95  1  1  0  0  0
 96 94  1  0  0  0  0
 97 94  1  0  0  0  0
 98 96  3  0  0  0  0
 99 92  1  0  0  0  0
100 92  1  0  0  0  0
101100  1  0  0  0  0
102100  1  0  0  0  0
103100  1  0  0  0  0
103115  1  6  0  0  0
104 85  1  0  0  0  0
105 85  1  0  0  0  0
107 99  3  0  0  0  0
108 97  1  0  0  0  0
109 97  1  0  0  0  0
110 97  1  0  0  0  0
111110  1  0  0  0  0
112110  1  0  0  0  0
113110  1  0  0  0  0
114111  3  0  0  0  0
116103  1  0  0  0  0
117103  1  0  0  0  0
118117  1  0  0  0  0
119117  1  0  0  0  0
120117  1  0  0  0  0
121116  3  0  0  0  0
M  END
