
 OpenBabel10311216023D

338358  0  0  0  0  0  0  0  0999 V2000
    0.1430    0.3389   -0.7745 C   0  0  0  0  0  0  0  0  0  0  0  0
   -0.8207   -0.5731   -1.2276 C   0  0  0  0  0  0  0  0  0  0  0  0
   -2.0925   -0.6049   -0.6536 C   0  0  0  0  0  0  0  0  0  0  0  0
   -2.4186    0.2818    0.3702 C   0  0  0  0  0  0  0  0  0  0  0  0
   -1.4763    1.2064    0.8151 C   0  0  0  0  0  0  0  0  0  0  0  0
   -0.2031    1.2378    0.2438 C   0  0  0  0  0  0  0  0  0  0  0  0
    1.5480    0.3263   -1.3337 C   0  0  0  0  0  0  0  0  0  0  0  0
    2.2875   -1.0034   -1.1056 C   0  0  0  0  0  0  0  0  0  0  0  0
    1.7500   -1.7986   -1.6377 H   0  0  0  0  0  0  0  0  0  0  0  0
    2.4190   -1.3920    0.3843 C   0  0  0  0  0  0  0  0  0  0  0  0
    3.2758   -0.9419   -1.5776 H   0  0  0  0  0  0  0  0  0  0  0  0
    1.4276   -1.2926    0.8394 H   0  0  0  0  0  0  0  0  0  0  0  0
    3.3863   -0.4852    1.1368 C   0  0  0  0  0  0  0  0  0  0  0  0
    2.8195   -2.8827    0.5235 C   0  0  0  0  0  0  0  0  0  0  0  0
    3.8529   -3.0209    0.1814 H   0  0  0  0  0  0  0  0  0  0  0  0
    2.1988   -3.4943   -0.1434 H   0  0  0  0  0  0  0  0  0  0  0  0
    2.6812   -3.3931    1.9768 C   0  0  0  0  0  0  0  0  0  0  0  0
    1.2196   -3.5070    2.4039 C   0  0  0  0  0  0  0  0  0  0  0  0
    3.1770   -2.6674    2.6306 H   0  0  0  0  0  0  0  0  0  0  0  0
    3.4269   -4.7353    2.1574 C   0  0  0  0  0  0  0  0  0  0  0  0
    2.1336    1.1510   -0.9099 H   0  0  0  0  0  0  0  0  0  0  0  0
    1.4878    0.5227   -2.4115 H   0  0  0  0  0  0  0  0  0  0  0  0
    4.7533   -0.4396    0.8231 C   0  0  0  0  0  0  0  0  0  0  0  0
    2.9212    0.2821    2.2160 C   0  0  0  0  0  0  0  0  0  0  0  0
    5.1521   -1.0285    0.0010 H   0  0  0  0  0  0  0  0  0  0  0  0
    5.6321    0.3389    1.5788 C   0  0  0  0  0  0  0  0  0  0  0  0
    3.8005    1.0605    2.9702 C   0  0  0  0  0  0  0  0  0  0  0  0
    1.8688    0.2574    2.4914 H   0  0  0  0  0  0  0  0  0  0  0  0
    5.1564    1.0858    2.6536 C   0  0  0  0  0  0  0  0  0  0  0  0
    3.4285    1.6353    3.8137 H   0  0  0  0  0  0  0  0  0  0  0  0
    6.6913    0.3505    1.3363 H   0  0  0  0  0  0  0  0  0  0  0  0
    5.8434    1.6803    3.2494 H   0  0  0  0  0  0  0  0  0  0  0  0
    0.5268    1.9536    0.6153 H   0  0  0  0  0  0  0  0  0  0  0  0
   -1.7284    1.8966    1.6154 H   0  0  0  0  0  0  0  0  0  0  0  0
   -3.4053    0.2490    0.8237 H   0  0  0  0  0  0  0  0  0  0  0  0
   -2.8248   -1.3298   -0.9982 H   0  0  0  0  0  0  0  0  0  0  0  0
   -0.5807   -1.2806   -2.0175 H   0  0  0  0  0  0  0  0  0  0  0  0
    0.3352   -4.4039    1.7849 C   0  0  0  0  0  0  0  0  0  0  0  0
    0.7447   -2.7275    3.4701 C   0  0  0  0  0  0  0  0  0  0  0  0
    0.6680   -5.0283    0.9601 H   0  0  0  0  0  0  0  0  0  0  0  0
   -0.9830   -4.5253    2.2284 C   0  0  0  0  0  0  0  0  0  0  0  0
   -0.5735   -2.8491    3.9118 C   0  0  0  0  0  0  0  0  0  0  0  0
    1.4080   -2.0283    3.9744 H   0  0  0  0  0  0  0  0  0  0  0  0
   -1.4363   -3.7500    3.2926 C   0  0  0  0  0  0  0  0  0  0  0  0
   -0.9236   -2.2463    4.7449 H   0  0  0  0  0  0  0  0  0  0  0  0
   -1.6534   -5.2324    1.7478 H   0  0  0  0  0  0  0  0  0  0  0  0
   -2.4597   -3.8512    3.6423 H   0  0  0  0  0  0  0  0  0  0  0  0
    4.4304   -4.6620    1.7200 H   0  0  0  0  0  0  0  0  0  0  0  0
    2.9108   -5.5236    1.5952 H   0  0  0  0  0  0  0  0  0  0  0  0
    3.5307   -5.1392    3.6449 C   0  0  0  0  0  0  0  0  0  0  0  0
    2.5334   -5.0369    4.0858 H   0  0  0  0  0  0  0  0  0  0  0  0
    4.4906   -4.2365    4.4164 C   0  0  0  0  0  0  0  0  0  0  0  0
    3.9206   -6.6267    3.7775 C   0  0  0  0  0  0  0  0  0  0  0  0
    4.9567   -6.7686    3.4458 H   0  0  0  0  0  0  0  0  0  0  0  0
    3.3028   -7.2339    3.1041 H   0  0  0  0  0  0  0  0  0  0  0  0
    3.7624   -7.1270    5.2285 C   0  0  0  0  0  0  0  0  0  0  0  0
    2.2971   -7.2305    5.6462 C   0  0  0  0  0  0  0  0  0  0  0  0
    4.2544   -6.3999    5.8833 H   0  0  0  0  0  0  0  0  0  0  0  0
    4.5022   -8.4657    5.4187 C   0  0  0  0  0  0  0  0  0  0  0  0
    5.5010   -8.4078    4.9684 H   0  0  0  0  0  0  0  0  0  0  0  0
    3.9740   -9.2611    4.8781 H   0  0  0  0  0  0  0  0  0  0  0  0
    4.6203   -8.8333    6.9109 C   0  0  0  0  0  0  0  0  0  0  0  0
    5.8595   -4.1826    4.1166 C   0  0  0  0  0  0  0  0  0  0  0  0
    6.7232   -3.3824    4.8669 C   0  0  0  0  0  0  0  0  0  0  0  0
    4.0073   -3.4598    5.4821 C   0  0  0  0  0  0  0  0  0  0  0  0
    6.2710   -4.7736    3.3020 H   0  0  0  0  0  0  0  0  0  0  0  0
    4.8716   -2.6602    6.2312 C   0  0  0  0  0  0  0  0  0  0  0  0
    2.9520   -3.4856    5.7427 H   0  0  0  0  0  0  0  0  0  0  0  0
    6.2287   -2.6230    5.9254 C   0  0  0  0  0  0  0  0  0  0  0  0
    4.4842   -2.0722    7.0589 H   0  0  0  0  0  0  0  0  0  0  0  0
    7.7826   -3.3578    4.6300 H   0  0  0  0  0  0  0  0  0  0  0  0
    6.9029   -2.0067    6.5132 H   0  0  0  0  0  0  0  0  0  0  0  0
    1.4069   -8.1124    5.0149 C   0  0  0  0  0  0  0  0  0  0  0  0
    1.8228   -6.4510    6.7131 C   0  0  0  0  0  0  0  0  0  0  0  0
    1.7386   -8.7355    4.1888 H   0  0  0  0  0  0  0  0  0  0  0  0
    0.0828   -8.2171    5.4452 C   0  0  0  0  0  0  0  0  0  0  0  0
    0.4990   -6.5564    7.1421 C   0  0  0  0  0  0  0  0  0  0  0  0
    2.4905   -5.7624    7.2264 H   0  0  0  0  0  0  0  0  0  0  0  0
   -0.3703   -7.4411    6.5091 C   0  0  0  0  0  0  0  0  0  0  0  0
    0.1494   -5.9526    7.9745 H   0  0  0  0  0  0  0  0  0  0  0  0
   -0.5934   -8.9106    4.9531 H   0  0  0  0  0  0  0  0  0  0  0  0
   -1.3988   -7.5285    6.8472 H   0  0  0  0  0  0  0  0  0  0  0  0
    3.6287   -8.7125    7.3599 H   0  0  0  0  0  0  0  0  0  0  0  0
    5.5946   -7.9215    7.6540 C   0  0  0  0  0  0  0  0  0  0  0  0
    5.0002  -10.3170    7.0635 C   0  0  0  0  0  0  0  0  0  0  0  0
    6.0403  -10.4674    6.7482 H   0  0  0  0  0  0  0  0  0  0  0  0
    4.3899  -10.9313    6.3898 H   0  0  0  0  0  0  0  0  0  0  0  0
    4.8154  -10.7931    8.5163 C   0  0  0  0  0  0  0  0  0  0  0  0
    3.3427  -10.8917    8.9076 C   0  0  0  0  0  0  0  0  0  0  0  0
    5.2948  -10.0562    9.1695 H   0  0  0  0  0  0  0  0  0  0  0  0
    5.5557  -12.1244    8.7256 C   0  0  0  0  0  0  0  0  0  0  0  0
    6.5654  -12.0613    8.3004 H   0  0  0  0  0  0  0  0  0  0  0  0
    5.0461  -12.9230    8.1717 H   0  0  0  0  0  0  0  0  0  0  0  0
    5.6408  -12.4920   10.2169 C   0  0  0  0  0  0  0  0  0  0  0  0
    6.9577   -7.8686    7.3257 C   0  0  0  0  0  0  0  0  0  0  0  0
    5.1308   -7.1282    8.7153 C   0  0  0  0  0  0  0  0  0  0  0  0
    7.3545   -8.4709    6.5129 H   0  0  0  0  0  0  0  0  0  0  0  0
    7.8321   -7.0502    8.0435 C   0  0  0  0  0  0  0  0  0  0  0  0
    6.0058   -6.3111    9.4323 C   0  0  0  0  0  0  0  0  0  0  0  0
    4.0804   -7.1512    8.9969 H   0  0  0  0  0  0  0  0  0  0  0  0
    7.3568   -6.2734    9.0970 C   0  0  0  0  0  0  0  0  0  0  0  0
    5.6329   -5.7087   10.2556 H   0  0  0  0  0  0  0  0  0  0  0  0
    8.8864   -7.0238    7.7826 H   0  0  0  0  0  0  0  0  0  0  0  0
    8.0390   -5.6413    9.6581 H   0  0  0  0  0  0  0  0  0  0  0  0
    2.4639  -11.7815    8.2715 C   0  0  0  0  0  0  0  0  0  0  0  0
    2.8463  -10.0906    9.9481 C   0  0  0  0  0  0  0  0  0  0  0  0
    2.8120  -12.4199    7.4640 H   0  0  0  0  0  0  0  0  0  0  0  0
    1.1287  -11.8710    8.6700 C   0  0  0  0  0  0  0  0  0  0  0  0
    1.5115  -10.1808   10.3454 C   0  0  0  0  0  0  0  0  0  0  0  0
    3.5040   -9.3939   10.4633 H   0  0  0  0  0  0  0  0  0  0  0  0
    0.6533  -11.0722    9.7070 C   0  0  0  0  0  0  0  0  0  0  0  0
    1.1442   -9.5581   11.1560 H   0  0  0  0  0  0  0  0  0  0  0  0
    0.4607  -12.5687    8.1727 H   0  0  0  0  0  0  0  0  0  0  0  0
   -0.3845  -11.1460   10.0189 H   0  0  0  0  0  0  0  0  0  0  0  0
    6.0800  -13.9582   10.3575 C   0  0  0  0  0  0  0  0  0  0  0  0
    7.1296  -14.0607   10.0539 H   0  0  0  0  0  0  0  0  0  0  0  0
    5.5053  -14.5895    9.6680 H   0  0  0  0  0  0  0  0  0  0  0  0
    5.8994  -14.4613   11.7983 C   0  0  0  0  0  0  0  0  0  0  0  0
    4.4284  -14.5736   12.1929 C   0  0  0  0  0  0  0  0  0  0  0  0
    6.3783  -13.7338   12.4623 H   0  0  0  0  0  0  0  0  0  0  0  0
    6.6434  -15.7947   11.9714 C   0  0  0  0  0  0  0  0  0  0  0  0
    7.6363  -15.7361   11.5081 H   0  0  0  0  0  0  0  0  0  0  0  0
    6.1088  -16.5893   11.4359 H   0  0  0  0  0  0  0  0  0  0  0  0
    6.7822  -16.1592   13.4572 C   0  0  0  0  0  0  0  0  0  0  0  0
    4.6303  -12.4167   10.6331 H   0  0  0  0  0  0  0  0  0  0  0  0
    6.5516  -11.5460   10.9960 C   0  0  0  0  0  0  0  0  0  0  0  0
    7.9186  -11.4238   10.7049 C   0  0  0  0  0  0  0  0  0  0  0  0
    6.0210  -10.7826   12.0482 C   0  0  0  0  0  0  0  0  0  0  0  0
    8.3663  -12.0001    9.8997 H   0  0  0  0  0  0  0  0  0  0  0  0
    8.7313  -10.5653   11.4479 C   0  0  0  0  0  0  0  0  0  0  0  0
    6.8344   -9.9252   12.7904 C   0  0  0  0  0  0  0  0  0  0  0  0
    4.9654  -10.8581   12.3000 H   0  0  0  0  0  0  0  0  0  0  0  0
    8.1897   -9.8174   12.4905 C   0  0  0  0  0  0  0  0  0  0  0  0
    6.4095   -9.3446   13.6042 H   0  0  0  0  0  0  0  0  0  0  0  0
    9.7890  -10.4835   11.2140 H   0  0  0  0  0  0  0  0  0  0  0  0
    8.8240   -9.1525   13.0696 H   0  0  0  0  0  0  0  0  0  0  0  0
    3.5424  -15.4291   11.5207 C   0  0  0  0  0  0  0  0  0  0  0  0
    3.9379  -13.8120   13.2655 C   0  0  0  0  0  0  0  0  0  0  0  0
    3.8853  -16.0362   10.6872 H   0  0  0  0  0  0  0  0  0  0  0  0
    2.2053  -15.5205   11.9121 C   0  0  0  0  0  0  0  0  0  0  0  0
    2.6014  -13.9045   13.6561 C   0  0  0  0  0  0  0  0  0  0  0  0
    4.6008  -13.1414   13.8081 H   0  0  0  0  0  0  0  0  0  0  0  0
    1.7353  -14.7593   12.9793 C   0  0  0  0  0  0  0  0  0  0  0  0
    2.2381  -13.3109   14.4900 H   0  0  0  0  0  0  0  0  0  0  0  0
    1.5309  -16.1888   11.3839 H   0  0  0  0  0  0  0  0  0  0  0  0
    0.6955  -14.8331   13.2841 H   0  0  0  0  0  0  0  0  0  0  0  0
    5.7948  -16.0443   13.9167 H   0  0  0  0  0  0  0  0  0  0  0  0
    7.7576  -15.2381   14.1870 C   0  0  0  0  0  0  0  0  0  0  0  0
    7.1752  -17.6383   13.5886 C   0  0  0  0  0  0  0  0  0  0  0  0
    8.2176  -17.7753   13.2748 H   0  0  0  0  0  0  0  0  0  0  0  0
    6.5732  -18.2512   12.9059 H   0  0  0  0  0  0  0  0  0  0  0  0
    6.9880  -18.1306   15.0315 C   0  0  0  0  0  0  0  0  0  0  0  0
    5.5145  -18.2130   15.4249 C   0  0  0  0  0  0  0  0  0  0  0  0
    7.4776  -17.4050   15.6898 H   0  0  0  0  0  0  0  0  0  0  0  0
    7.7113  -19.4734   15.2125 C   0  0  0  0  0  0  0  0  0  0  0  0
    8.7033  -19.4339   14.7454 H   0  0  0  0  0  0  0  0  0  0  0  0
    7.1631  -20.2649   14.6862 H   0  0  0  0  0  0  0  0  0  0  0  0
    7.8511  -19.8273   16.7007 C   0  0  0  0  0  0  0  0  0  0  0  0
    9.1145  -15.1667   13.8369 C   0  0  0  0  0  0  0  0  0  0  0  0
    7.2973  -14.4388   15.2454 C   0  0  0  0  0  0  0  0  0  0  0  0
    9.5084  -15.7708   13.0240 H   0  0  0  0  0  0  0  0  0  0  0  0
    9.9851  -14.3212   14.5273 C   0  0  0  0  0  0  0  0  0  0  0  0
    8.1683  -13.5938   15.9345 C   0  0  0  0  0  0  0  0  0  0  0  0
    6.2511  -14.4728   15.5415 H   0  0  0  0  0  0  0  0  0  0  0  0
    9.5124  -13.5355   15.5754 C   0  0  0  0  0  0  0  0  0  0  0  0
    7.7969  -12.9825   16.7519 H   0  0  0  0  0  0  0  0  0  0  0  0
   11.0338  -14.2775   14.2467 H   0  0  0  0  0  0  0  0  0  0  0  0
   10.1909  -12.8790   16.1124 H   0  0  0  0  0  0  0  0  0  0  0  0
    4.6157  -19.0632   14.7629 C   0  0  0  0  0  0  0  0  0  0  0  0
    5.0323  -17.4201   16.4784 C   0  0  0  0  0  0  0  0  0  0  0  0
    4.9513  -19.6919   13.9426 H   0  0  0  0  0  0  0  0  0  0  0  0
    3.2738  -19.1178   15.1446 C   0  0  0  0  0  0  0  0  0  0  0  0
    3.6908  -17.4755   16.8590 C   0  0  0  0  0  0  0  0  0  0  0  0
    5.7044  -16.7508   17.0110 H   0  0  0  0  0  0  0  0  0  0  0  0
    2.8117  -18.3247   16.1918 C   0  0  0  0  0  0  0  0  0  0  0  0
    3.3332  -16.8558   17.6761 H   0  0  0  0  0  0  0  0  0  0  0  0
    2.5890  -19.7807   14.6230 H   0  0  0  0  0  0  0  0  0  0  0  0
    1.7676  -18.3683   16.4877 H   0  0  0  0  0  0  0  0  0  0  0  0
    6.8615  -19.7142   17.1562 H   0  0  0  0  0  0  0  0  0  0  0  0
    8.8192  -18.8936   17.4243 C   0  0  0  0  0  0  0  0  0  0  0  0
    8.2550  -21.3029   16.8401 C   0  0  0  0  0  0  0  0  0  0  0  0
    9.3002  -21.4329   16.5326 H   0  0  0  0  0  0  0  0  0  0  0  0
    7.6616  -21.9227   16.1562 H   0  0  0  0  0  0  0  0  0  0  0  0
    8.0646  -21.7936   18.2835 C   0  0  0  0  0  0  0  0  0  0  0  0
    6.5899  -21.8659   18.6742 C   0  0  0  0  0  0  0  0  0  0  0  0
    8.5574  -21.0681   18.9395 H   0  0  0  0  0  0  0  0  0  0  0  0
    8.7807  -23.1412   18.4660 C   0  0  0  0  0  0  0  0  0  0  0  0
    9.7706  -23.1088   17.9938 H   0  0  0  0  0  0  0  0  0  0  0  0
    8.2253  -23.9312   17.9450 H   0  0  0  0  0  0  0  0  0  0  0  0
    8.9269  -23.4939   19.9548 C   0  0  0  0  0  0  0  0  0  0  0  0
   10.1730  -18.8051   17.0659 C   0  0  0  0  0  0  0  0  0  0  0  0
    8.3524  -18.0907   18.4771 C   0  0  0  0  0  0  0  0  0  0  0  0
   10.5713  -19.4100   16.2558 H   0  0  0  0  0  0  0  0  0  0  0  0
   11.0335  -17.9372   17.7409 C   0  0  0  0  0  0  0  0  0  0  0  0
    9.2134  -17.2235   19.1510 C   0  0  0  0  0  0  0  0  0  0  0  0
    7.3079  -18.1360   18.7776 H   0  0  0  0  0  0  0  0  0  0  0  0
   10.5541  -17.1468   18.7824 C   0  0  0  0  0  0  0  0  0  0  0  0
    8.8366  -16.6078   19.9625 H   0  0  0  0  0  0  0  0  0  0  0  0
   12.0791  -17.8779   17.4519 H   0  0  0  0  0  0  0  0  0  0  0  0
   11.2243  -16.4713   19.3059 H   0  0  0  0  0  0  0  0  0  0  0  0
    5.6854  -22.7055   18.0066 C   0  0  0  0  0  0  0  0  0  0  0  0
    6.1102  -21.0662   19.7236 C   0  0  0  0  0  0  0  0  0  0  0  0
    6.0187  -23.3380   17.1882 H   0  0  0  0  0  0  0  0  0  0  0  0
    4.3398  -22.7414   18.3773 C   0  0  0  0  0  0  0  0  0  0  0  0
    4.7650  -21.1029   20.0932 C   0  0  0  0  0  0  0  0  0  0  0  0
    6.7865  -20.4034   20.2592 H   0  0  0  0  0  0  0  0  0  0  0  0
    4.4088  -20.4761   20.9056 H   0  0  0  0  0  0  0  0  0  0  0  0
    3.8798  -21.9403   19.4193 C   0  0  0  0  0  0  0  0  0  0  0  0
    3.6500  -23.3944   17.8499 H   0  0  0  0  0  0  0  0  0  0  0  0
    2.8324  -21.9678   19.7053 H   0  0  0  0  0  0  0  0  0  0  0  0
    7.9369  -23.3843   20.4101 H   0  0  0  0  0  0  0  0  0  0  0  0
    9.8898  -22.5506   20.6729 C   0  0  0  0  0  0  0  0  0  0  0  0
    9.3416  -24.9680   20.0978 C   0  0  0  0  0  0  0  0  0  0  0  0
   10.3893  -25.0910   19.7961 H   0  0  0  0  0  0  0  0  0  0  0  0
    8.7559  -25.5916   19.4108 H   0  0  0  0  0  0  0  0  0  0  0  0
    9.1482  -25.4628   21.5410 C   0  0  0  0  0  0  0  0  0  0  0  0
    7.6721  -25.5250   21.9279 C   0  0  0  0  0  0  0  0  0  0  0  0
    9.6436  -24.7382   22.1962 H   0  0  0  0  0  0  0  0  0  0  0  0
    9.8565  -26.8168   21.7274 C   0  0  0  0  0  0  0  0  0  0  0  0
   10.8442  -26.7921   21.2501 H   0  0  0  0  0  0  0  0  0  0  0  0
    9.2937  -27.6057   21.2130 H   0  0  0  0  0  0  0  0  0  0  0  0
   10.0086  -27.1672   23.2183 C   0  0  0  0  0  0  0  0  0  0  0  0
   11.2403  -22.4482   20.3061 C   0  0  0  0  0  0  0  0  0  0  0  0
    9.4189  -21.7451   21.7219 C   0  0  0  0  0  0  0  0  0  0  0  0
   11.6411  -23.0535   19.4976 H   0  0  0  0  0  0  0  0  0  0  0  0
   12.0931  -21.5625   20.9677 C   0  0  0  0  0  0  0  0  0  0  0  0
   10.2723  -20.8601   22.3823 C   0  0  0  0  0  0  0  0  0  0  0  0
    8.3763  -21.7994   22.0275 H   0  0  0  0  0  0  0  0  0  0  0  0
   11.6094  -20.7685   22.0043 C   0  0  0  0  0  0  0  0  0  0  0  0
    9.8918  -20.2407   23.1893 H   0  0  0  0  0  0  0  0  0  0  0  0
   13.1357  -21.4908   20.6705 H   0  0  0  0  0  0  0  0  0  0  0  0
   12.2732  -20.0776   22.5160 H   0  0  0  0  0  0  0  0  0  0  0  0
    6.7624  -26.3525   21.2524 C   0  0  0  0  0  0  0  0  0  0  0  0
    7.1944  -24.7199   22.9741 C   0  0  0  0  0  0  0  0  0  0  0  0
    7.0939  -26.9876   20.4353 H   0  0  0  0  0  0  0  0  0  0  0  0
    5.4129  -26.3694   21.6105 C   0  0  0  0  0  0  0  0  0  0  0  0
    5.8454  -24.7376   23.3311 C   0  0  0  0  0  0  0  0  0  0  0  0
    7.8744  -24.0647   23.5142 H   0  0  0  0  0  0  0  0  0  0  0  0
    4.9546  -25.5617   22.6482 C   0  0  0  0  0  0  0  0  0  0  0  0
    5.4902  -24.1047   24.1392 H   0  0  0  0  0  0  0  0  0  0  0  0
    4.7186  -27.0111   21.0752 H   0  0  0  0  0  0  0  0  0  0  0  0
    3.9038  -25.5727   22.9229 H   0  0  0  0  0  0  0  0  0  0  0  0
    9.0178  -27.0594   23.6724 H   0  0  0  0  0  0  0  0  0  0  0  0
   10.9662  -26.2132   23.9293 C   0  0  0  0  0  0  0  0  0  0  0  0
   10.4333  -28.6404   23.3742 C   0  0  0  0  0  0  0  0  0  0  0  0
   11.4838  -28.7584   23.0804 H   0  0  0  0  0  0  0  0  0  0  0  0
    9.8559  -29.2708   22.6864 H   0  0  0  0  0  0  0  0  0  0  0  0
   10.2352  -29.1312   24.8213 C   0  0  0  0  0  0  0  0  0  0  0  0
    8.7569  -29.1861   25.2004 C   0  0  0  0  0  0  0  0  0  0  0  0
   10.7282  -28.4010   25.4718 H   0  0  0  0  0  0  0  0  0  0  0  0
   10.9397  -30.4880   25.0286 C   0  0  0  0  0  0  0  0  0  0  0  0
   11.9249  -30.4742   24.5460 H   0  0  0  0  0  0  0  0  0  0  0  0
   10.3713  -31.2833   24.5302 H   0  0  0  0  0  0  0  0  0  0  0  0
   11.0986  -30.8192   26.5272 C   0  0  0  0  0  0  0  0  0  0  0  0
   12.3133  -26.0984   23.5540 C   0  0  0  0  0  0  0  0  0  0  0  0
   10.4915  -25.4038   24.9736 C   0  0  0  0  0  0  0  0  0  0  0  0
   12.7163  -26.7055   22.7479 H   0  0  0  0  0  0  0  0  0  0  0  0
   13.1586  -25.1950   24.2011 C   0  0  0  0  0  0  0  0  0  0  0  0
   11.3374  -24.5012   25.6196 C   0  0  0  0  0  0  0  0  0  0  0  0
    9.4508  -25.4665   25.2843 H   0  0  0  0  0  0  0  0  0  0  0  0
   12.6707  -24.3961   25.2321 C   0  0  0  0  0  0  0  0  0  0  0  0
   10.9533  -23.8773   26.4214 H   0  0  0  0  0  0  0  0  0  0  0  0
   14.1980  -25.1119   23.8958 H   0  0  0  0  0  0  0  0  0  0  0  0
   13.3281  -23.6901   25.7312 H   0  0  0  0  0  0  0  0  0  0  0  0
    7.8465  -30.0068   24.5175 C   0  0  0  0  0  0  0  0  0  0  0  0
    8.2760  -28.3734   26.2392 C   0  0  0  0  0  0  0  0  0  0  0  0
    8.1806  -30.6466   23.7051 H   0  0  0  0  0  0  0  0  0  0  0  0
    6.4927  -30.0073   24.8590 C   0  0  0  0  0  0  0  0  0  0  0  0
    6.9226  -28.3748   26.5797 C   0  0  0  0  0  0  0  0  0  0  0  0
    8.9563  -27.7222   26.7837 H   0  0  0  0  0  0  0  0  0  0  0  0
    6.0309  -29.1905   25.8880 C   0  0  0  0  0  0  0  0  0  0  0  0
    6.5646  -27.7342   27.3805 H   0  0  0  0  0  0  0  0  0  0  0  0
    5.7974  -30.6416   24.3162 H   0  0  0  0  0  0  0  0  0  0  0  0
    4.9764  -29.1872   26.1485 H   0  0  0  0  0  0  0  0  0  0  0  0
   10.1069  -30.7097   26.9789 H   0  0  0  0  0  0  0  0  0  0  0  0
   12.0502  -29.8464   27.2200 C   0  0  0  0  0  0  0  0  0  0  0  0
   11.5376  -32.2879   26.7152 C   0  0  0  0  0  0  0  0  0  0  0  0
   12.5932  -32.3999   26.4380 H   0  0  0  0  0  0  0  0  0  0  0  0
   10.9763  -32.9335   26.0283 H   0  0  0  0  0  0  0  0  0  0  0  0
   11.3262  -32.7670   28.1697 C   0  0  0  0  0  0  0  0  0  0  0  0
    9.8422  -32.8246   28.5238 C   0  0  0  0  0  0  0  0  0  0  0  0
   11.8076  -32.0273   28.8186 H   0  0  0  0  0  0  0  0  0  0  0  0
   12.0346  -34.1211   28.4039 C   0  0  0  0  0  0  0  0  0  0  0  0
   13.0381  -34.0912   27.9612 H   0  0  0  0  0  0  0  0  0  0  0  0
   11.4964  -34.9166   27.8731 H   0  0  0  0  0  0  0  0  0  0  0  0
   12.1402  -34.4819   29.9069 C   0  0  0  0  0  0  0  0  0  0  0  0
   13.3915  -29.7172   26.8286 C   0  0  0  0  0  0  0  0  0  0  0  0
   11.5739  -29.0286   28.2567 C   0  0  0  0  0  0  0  0  0  0  0  0
   13.7948  -30.3295   26.0264 H   0  0  0  0  0  0  0  0  0  0  0  0
   14.2291  -28.7897   27.4509 C   0  0  0  0  0  0  0  0  0  0  0  0
   12.4123  -28.1022   28.8783 C   0  0  0  0  0  0  0  0  0  0  0  0
   10.5372  -29.1009   28.5779 H   0  0  0  0  0  0  0  0  0  0  0  0
   13.7393  -27.9816   28.4738 C   0  0  0  0  0  0  0  0  0  0  0  0
   12.0266  -27.4703   29.6732 H   0  0  0  0  0  0  0  0  0  0  0  0
   15.2630  -28.6935   27.1311 H   0  0  0  0  0  0  0  0  0  0  0  0
   14.3900  -27.2555   28.9524 H   0  0  0  0  0  0  0  0  0  0  0  0
    8.9491  -33.6620   27.8379 C   0  0  0  0  0  0  0  0  0  0  0  0
    9.3365  -31.9917   29.5341 C   0  0  0  0  0  0  0  0  0  0  0  0
    9.3023  -34.3163   27.0453 H   0  0  0  0  0  0  0  0  0  0  0  0
    7.5877  -33.6574   28.1472 C   0  0  0  0  0  0  0  0  0  0  0  0
    7.9754  -31.9880   29.8423 C   0  0  0  0  0  0  0  0  0  0  0  0
   10.0028  -31.3263   30.0788 H   0  0  0  0  0  0  0  0  0  0  0  0
    7.1009  -32.8192   29.1470 C   0  0  0  0  0  0  0  0  0  0  0  0
    7.5975  -31.3297   30.6193 H   0  0  0  0  0  0  0  0  0  0  0  0
    6.9057  -34.3028   27.6005 H   0  0  0  0  0  0  0  0  0  0  0  0
    6.0402  -32.8101   29.3808 H   0  0  0  0  0  0  0  0  0  0  0  0
   12.6392  -35.9362   30.0783 C   0  0  0  0  0  0  0  0  0  0  0  0
   13.7098  -35.9977   29.8444 H   0  0  0  0  0  0  0  0  0  0  0  0
   12.1370  -36.5765   29.3413 H   0  0  0  0  0  0  0  0  0  0  0  0
   12.3929  -36.5088   31.4951 C   0  0  0  0  0  0  0  0  0  0  0  0
   10.9130  -36.5409   31.8509 C   0  0  0  0  0  0  0  0  0  0  0  0
   12.9167  -35.8701   32.2181 H   0  0  0  0  0  0  0  0  0  0  0  0
   13.0114  -37.9054   31.6177 C   0  0  0  0  0  0  0  0  0  0  0  0
   14.0928  -37.8623   31.4486 H   0  0  0  0  0  0  0  0  0  0  0  0
   12.5887  -38.6059   30.8893 H   0  0  0  0  0  0  0  0  0  0  0  0
   12.8449  -38.3210   32.6176 H   0  0  0  0  0  0  0  0  0  0  0  0
   11.1236  -34.4274   30.3108 H   0  0  0  0  0  0  0  0  0  0  0  0
   13.0120  -33.4833   30.6604 C   0  0  0  0  0  0  0  0  0  0  0  0
   14.3551  -33.2667   30.3157 C   0  0  0  0  0  0  0  0  0  0  0  0
   12.4511  -32.7082   31.6872 C   0  0  0  0  0  0  0  0  0  0  0  0
   14.8210  -33.8402   29.5183 H   0  0  0  0  0  0  0  0  0  0  0  0
   15.1100  -32.2905   30.9685 C   0  0  0  0  0  0  0  0  0  0  0  0
   13.2071  -31.7331   32.3396 C   0  0  0  0  0  0  0  0  0  0  0  0
   11.4086  -32.8441   31.9678 H   0  0  0  0  0  0  0  0  0  0  0  0
   14.5352  -31.5219   31.9776 C   0  0  0  0  0  0  0  0  0  0  0  0
   12.7541  -31.1286   33.1205 H   0  0  0  0  0  0  0  0  0  0  0  0
   16.1433  -32.1206   30.6784 H   0  0  0  0  0  0  0  0  0  0  0  0
   15.1196  -30.7532   32.4754 H   0  0  0  0  0  0  0  0  0  0  0  0
    9.9855  -37.2653   31.0857 C   0  0  0  0  0  0  0  0  0  0  0  0
   10.4416  -35.7831   32.9337 C   0  0  0  0  0  0  0  0  0  0  0  0
   10.3134  -37.8580   30.2354 H   0  0  0  0  0  0  0  0  0  0  0  0
    8.6228  -37.2182   31.3852 C   0  0  0  0  0  0  0  0  0  0  0  0
    9.0784  -35.7358   33.2310 C   0  0  0  0  0  0  0  0  0  0  0  0
   11.1338  -35.2034   33.5405 H   0  0  0  0  0  0  0  0  0  0  0  0
    8.1692  -36.4506   32.4549 C   0  0  0  0  0  0  0  0  0  0  0  0
    8.7255  -35.1312   34.0618 H   0  0  0  0  0  0  0  0  0  0  0  0
    7.9144  -37.7718   30.7749 H   0  0  0  0  0  0  0  0  0  0  0  0
    7.1073  -36.4047   32.6795 H   0  0  0  0  0  0  0  0  0  0  0  0
  1  2  2  0  0  0  0
  1  6  1  0  0  0  0
  1  7  1  0  0  0  0
  2  3  1  0  0  0  0
  3  4  2  0  0  0  0
  4  5  1  0  0  0  0
  5  6  2  0  0  0  0
  7  8  1  0  0  0  0
  9  8  1  0  0  0  0
 10  8  1  0  0  0  0
 11  8  1  0  0  0  0
 12 10  1  0  0  0  0
 13 10  1  0  0  0  0
 14 10  1  0  0  0  0
 15 14  1  0  0  0  0
 16 14  1  0  0  0  0
 17 14  1  0  0  0  0
 18 17  1  0  0  0  0
 19 17  1  0  0  0  0
 20 17  1  0  0  0  0
 21  7  1  0  0  0  0
 22  7  1  0  0  0  0
 23 13  2  0  0  0  0
 24 13  1  0  0  0  0
 25 23  1  0  0  0  0
 26 23  1  0  0  0  0
 26 29  2  0  0  0  0
 27 24  2  0  0  0  0
 28 24  1  0  0  0  0
 29 27  1  0  0  0  0
 30 27  1  0  0  0  0
 31 26  1  0  0  0  0
 32 29  1  0  0  0  0
 33  6  1  0  0  0  0
 34  5  1  0  0  0  0
 35  4  1  0  0  0  0
 36  3  1  0  0  0  0
 37  2  1  0  0  0  0
 38 18  2  0  0  0  0
 39 18  1  0  0  0  0
 40 38  1  0  0  0  0
 41 38  1  0  0  0  0
 42 39  2  0  0  0  0
 43 39  1  0  0  0  0
 44 42  1  0  0  0  0
 44 41  2  0  0  0  0
 45 42  1  0  0  0  0
 46 41  1  0  0  0  0
 47 44  1  0  0  0  0
 48 20  1  0  0  0  0
 49 20  1  0  0  0  0
 50 20  1  0  0  0  0
 51 50  1  0  0  0  0
 52 50  1  0  0  0  0
 53 50  1  0  0  0  0
 54 53  1  0  0  0  0
 55 53  1  0  0  0  0
 56 53  1  0  0  0  0
 57 56  1  0  0  0  0
 58 56  1  0  0  0  0
 59 56  1  0  0  0  0
 60 59  1  0  0  0  0
 61 59  1  0  0  0  0
 62 59  1  0  0  0  0
 63 52  2  0  0  0  0
 64 63  1  0  0  0  0
 65 52  1  0  0  0  0
 66 63  1  0  0  0  0
 67 65  2  0  0  0  0
 68 65  1  0  0  0  0
 69 67  1  0  0  0  0
 69 64  2  0  0  0  0
 70 67  1  0  0  0  0
 71 64  1  0  0  0  0
 72 69  1  0  0  0  0
 73 57  2  0  0  0  0
 74 57  1  0  0  0  0
 75 73  1  0  0  0  0
 76 73  1  0  0  0  0
 77 74  2  0  0  0  0
 78 74  1  0  0  0  0
 79 77  1  0  0  0  0
 79 76  2  0  0  0  0
 80 77  1  0  0  0  0
 81 76  1  0  0  0  0
 82 79  1  0  0  0  0
 83 62  1  0  0  0  0
 84 62  1  0  0  0  0
 85 62  1  0  0  0  0
 86 85  1  0  0  0  0
 87 85  1  0  0  0  0
 88 85  1  0  0  0  0
 89 88  1  0  0  0  0
 90 88  1  0  0  0  0
 91 88  1  0  0  0  0
 92 91  1  0  0  0  0
 93 91  1  0  0  0  0
 94 91  1  0  0  0  0
 95 84  2  0  0  0  0
 96 84  1  0  0  0  0
 97 95  1  0  0  0  0
 98 95  1  0  0  0  0
 99 96  2  0  0  0  0
100 96  1  0  0  0  0
101 99  1  0  0  0  0
101 98  2  0  0  0  0
102 99  1  0  0  0  0
103 98  1  0  0  0  0
104101  1  0  0  0  0
105 89  2  0  0  0  0
106 89  1  0  0  0  0
107105  1  0  0  0  0
108105  1  0  0  0  0
109106  2  0  0  0  0
110106  1  0  0  0  0
111109  1  0  0  0  0
111108  2  0  0  0  0
112109  1  0  0  0  0
113108  1  0  0  0  0
114111  1  0  0  0  0
115 94  1  0  0  0  0
116115  1  0  0  0  0
117115  1  0  0  0  0
118115  1  0  0  0  0
119118  1  0  0  0  0
120118  1  0  0  0  0
121118  1  0  0  0  0
122121  1  0  0  0  0
123121  1  0  0  0  0
124121  1  0  0  0  0
125 94  1  0  0  0  0
126 94  1  0  0  0  0
127126  2  0  0  0  0
128126  1  0  0  0  0
129127  1  0  0  0  0
130127  1  0  0  0  0
131128  2  0  0  0  0
132128  1  0  0  0  0
133131  1  0  0  0  0
133130  2  0  0  0  0
134131  1  0  0  0  0
135130  1  0  0  0  0
136133  1  0  0  0  0
137119  2  0  0  0  0
138119  1  0  0  0  0
139137  1  0  0  0  0
140137  1  0  0  0  0
141138  2  0  0  0  0
142138  1  0  0  0  0
143141  1  0  0  0  0
143140  2  0  0  0  0
144141  1  0  0  0  0
145140  1  0  0  0  0
146143  1  0  0  0  0
147124  1  0  0  0  0
148124  1  0  0  0  0
149124  1  0  0  0  0
150149  1  0  0  0  0
151149  1  0  0  0  0
152149  1  0  0  0  0
153152  1  0  0  0  0
154152  1  0  0  0  0
155152  1  0  0  0  0
156155  1  0  0  0  0
157155  1  0  0  0  0
158155  1  0  0  0  0
159148  2  0  0  0  0
160148  1  0  0  0  0
161159  1  0  0  0  0
162159  1  0  0  0  0
163160  2  0  0  0  0
164160  1  0  0  0  0
165163  1  0  0  0  0
165162  2  0  0  0  0
166163  1  0  0  0  0
167162  1  0  0  0  0
168165  1  0  0  0  0
169153  2  0  0  0  0
170153  1  0  0  0  0
171169  1  0  0  0  0
172169  1  0  0  0  0
173170  2  0  0  0  0
174170  1  0  0  0  0
175173  1  0  0  0  0
175172  2  0  0  0  0
176173  1  0  0  0  0
177172  1  0  0  0  0
178175  1  0  0  0  0
179158  1  0  0  0  0
180158  1  0  0  0  0
181158  1  0  0  0  0
182181  1  0  0  0  0
183181  1  0  0  0  0
184181  1  0  0  0  0
185184  1  0  0  0  0
186184  1  0  0  0  0
187184  1  0  0  0  0
188187  1  0  0  0  0
189187  1  0  0  0  0
190187  1  0  0  0  0
191180  2  0  0  0  0
192180  1  0  0  0  0
193191  1  0  0  0  0
194191  1  0  0  0  0
195192  2  0  0  0  0
196192  1  0  0  0  0
197195  1  0  0  0  0
197194  2  0  0  0  0
198195  1  0  0  0  0
199194  1  0  0  0  0
200197  1  0  0  0  0
201185  2  0  0  0  0
202185  1  0  0  0  0
203201  1  0  0  0  0
204201  1  0  0  0  0
205202  2  0  0  0  0
206202  1  0  0  0  0
207205  1  0  0  0  0
208205  1  0  0  0  0
208204  2  0  0  0  0
209204  1  0  0  0  0
210208  1  0  0  0  0
211190  1  0  0  0  0
212190  1  0  0  0  0
213190  1  0  0  0  0
214213  1  0  0  0  0
215213  1  0  0  0  0
216213  1  0  0  0  0
217216  1  0  0  0  0
218216  1  0  0  0  0
219216  1  0  0  0  0
220219  1  0  0  0  0
221219  1  0  0  0  0
222219  1  0  0  0  0
223212  2  0  0  0  0
224212  1  0  0  0  0
225223  1  0  0  0  0
226223  1  0  0  0  0
227224  2  0  0  0  0
228224  1  0  0  0  0
229227  1  0  0  0  0
229226  2  0  0  0  0
230227  1  0  0  0  0
231226  1  0  0  0  0
232229  1  0  0  0  0
233217  2  0  0  0  0
234217  1  0  0  0  0
235233  1  0  0  0  0
236233  1  0  0  0  0
237234  2  0  0  0  0
238234  1  0  0  0  0
239237  1  0  0  0  0
239236  2  0  0  0  0
240237  1  0  0  0  0
241236  1  0  0  0  0
242239  1  0  0  0  0
243222  1  0  0  0  0
244222  1  0  0  0  0
245222  1  0  0  0  0
246245  1  0  0  0  0
247245  1  0  0  0  0
248245  1  0  0  0  0
249248  1  0  0  0  0
250248  1  0  0  0  0
251248  1  0  0  0  0
252251  1  0  0  0  0
253251  1  0  0  0  0
254251  1  0  0  0  0
255244  2  0  0  0  0
256244  1  0  0  0  0
257255  1  0  0  0  0
258255  1  0  0  0  0
259256  2  0  0  0  0
260256  1  0  0  0  0
261259  1  0  0  0  0
261258  2  0  0  0  0
262259  1  0  0  0  0
263258  1  0  0  0  0
264261  1  0  0  0  0
265249  2  0  0  0  0
266249  1  0  0  0  0
267265  1  0  0  0  0
268265  1  0  0  0  0
269266  2  0  0  0  0
270266  1  0  0  0  0
271269  1  0  0  0  0
271268  2  0  0  0  0
272269  1  0  0  0  0
273268  1  0  0  0  0
274271  1  0  0  0  0
275254  1  0  0  0  0
276254  1  0  0  0  0
277254  1  0  0  0  0
278277  1  0  0  0  0
279277  1  0  0  0  0
280277  1  0  0  0  0
281280  1  0  0  0  0
282280  1  0  0  0  0
283280  1  0  0  0  0
284283  1  0  0  0  0
285283  1  0  0  0  0
286283  1  0  0  0  0
287276  2  0  0  0  0
288276  1  0  0  0  0
289287  1  0  0  0  0
290287  1  0  0  0  0
291288  2  0  0  0  0
292288  1  0  0  0  0
293291  1  0  0  0  0
293290  2  0  0  0  0
294291  1  0  0  0  0
295290  1  0  0  0  0
296293  1  0  0  0  0
297281  2  0  0  0  0
298281  1  0  0  0  0
299297  1  0  0  0  0
300297  1  0  0  0  0
301298  2  0  0  0  0
302298  1  0  0  0  0
303301  1  0  0  0  0
303300  2  0  0  0  0
304301  1  0  0  0  0
305300  1  0  0  0  0
306303  1  0  0  0  0
307286  1  0  0  0  0
308307  1  0  0  0  0
309307  1  0  0  0  0
310307  1  0  0  0  0
311310  1  0  0  0  0
312310  1  0  0  0  0
313310  1  0  0  0  0
314313  1  0  0  0  0
315313  1  0  0  0  0
316313  1  0  0  0  0
317286  1  0  0  0  0
318286  1  0  0  0  0
319318  2  0  0  0  0
320318  1  0  0  0  0
321319  1  0  0  0  0
322319  1  0  0  0  0
323320  2  0  0  0  0
324320  1  0  0  0  0
325323  1  0  0  0  0
325322  2  0  0  0  0
326323  1  0  0  0  0
327322  1  0  0  0  0
328325  1  0  0  0  0
329311  2  0  0  0  0
330311  1  0  0  0  0
331329  1  0  0  0  0
332329  1  0  0  0  0
333330  2  0  0  0  0
334330  1  0  0  0  0
335333  1  0  0  0  0
335332  2  0  0  0  0
336333  1  0  0  0  0
337332  1  0  0  0  0
338335  1  0  0  0  0
M  END
