
 OpenBabel10101311173D

149148  0  0  1  0  0  0  0  0999 V2000
   -0.0041    0.1156   -0.0912 C   0  0  1  0  0  0  0  0  0  0  0  0
    0.5580   -0.8830   -1.1187 C   0  0  0  0  0  0  0  0  0  0  0  0
    0.8658    1.3102   -0.0361 C   0  0  0  0  0  0  0  0  0  0  0  0
   -1.4347    0.5312   -0.4773 C   0  0  0  0  0  0  0  0  0  0  0  0
   -0.0211   -0.3559    0.8977 H   0  0  0  0  0  0  0  0  0  0  0  0
    1.8024   -1.6062   -0.5708 C   0  0  1  0  0  0  0  0  0  0  0  0
    0.8081   -0.3484   -2.0451 H   0  0  0  0  0  0  0  0  0  0  0  0
   -0.2071   -1.6260   -1.3817 H   0  0  0  0  0  0  0  0  0  0  0  0
    1.5405    2.2514   -0.0249 N   0  0  0  0  0  0  0  0  0  0  0  0
   -2.0205   -0.3557   -0.7547 H   0  0  0  0  0  0  0  0  0  0  0  0
   -1.3979    1.1752   -1.3663 H   0  0  0  0  0  0  0  0  0  0  0  0
   -2.1417    1.2658    0.6768 C   0  0  2  0  0  0  0  0  0  0  0  0
   -1.4607    2.0158    1.0932 H   0  0  0  0  0  0  0  0  0  0  0  0
   -2.4946    0.3030    1.7409 C   0  0  0  0  0  0  0  0  0  0  0  0
   -3.4082    1.9698    0.1572 C   0  0  0  0  0  0  0  0  0  0  0  0
    1.3884   -2.6239    0.4179 C   0  0  0  0  0  0  0  0  0  0  0  0
    2.4524   -0.8771   -0.0750 H   0  0  0  0  0  0  0  0  0  0  0  0
    2.5775   -2.2710   -1.7219 C   0  0  0  0  0  0  0  0  0  0  0  0
    2.7211   -1.5470   -2.5356 H   0  0  0  0  0  0  0  0  0  0  0  0
    1.9794   -3.0949   -2.1342 H   0  0  0  0  0  0  0  0  0  0  0  0
    3.9504   -2.8022   -1.2706 C   0  0  2  0  0  0  0  0  0  0  0  0
   -2.7820   -0.4618    2.5615 N   0  0  0  0  0  0  0  0  0  0  0  0
    1.0506   -3.4334    1.1741 N   0  0  0  0  0  0  0  0  0  0  0  0
   -4.0265    2.9110    1.2072 C   0  0  1  0  0  0  0  0  0  0  0  0
   -3.1192    4.0489    1.4645 C   0  0  0  0  0  0  0  0  0  0  0  0
   -4.1717    2.3562    2.1405 H   0  0  0  0  0  0  0  0  0  0  0  0
   -5.3889    3.4331    0.7109 C   0  0  0  0  0  0  0  0  0  0  0  0
    3.8163   -3.4271   -0.3811 H   0  0  0  0  0  0  0  0  0  0  0  0
    4.8425   -1.6744   -0.9303 C   0  0  0  0  0  0  0  0  0  0  0  0
    4.5793   -3.6488   -2.3937 C   0  0  0  0  0  0  0  0  0  0  0  0
    4.8555   -2.9920   -3.2298 H   0  0  0  0  0  0  0  0  0  0  0  0
    3.8368   -4.3590   -2.7823 H   0  0  0  0  0  0  0  0  0  0  0  0
    5.8190   -4.4224   -1.9098 C   0  0  1  0  0  0  0  0  0  0  0  0
   -2.4073    4.9440    1.6453 N   0  0  0  0  0  0  0  0  0  0  0  0
    5.5383   -0.7831   -0.6799 N   0  0  0  0  0  0  0  0  0  0  0  0
   -5.9816    2.6017    0.3059 H   0  0  0  0  0  0  0  0  0  0  0  0
   -5.2267    4.1372   -0.1166 H   0  0  0  0  0  0  0  0  0  0  0  0
   -6.1809    4.1236    1.8367 C   0  0  2  0  0  0  0  0  0  0  0  0
   -5.5211    4.8242    2.3601 H   0  0  0  0  0  0  0  0  0  0  0  0
   -6.6597    3.1103    2.8008 C   0  0  0  0  0  0  0  0  0  0  0  0
   -7.3795    4.8998    1.2554 C   0  0  0  0  0  0  0  0  0  0  0  0
    5.4082   -5.4917   -0.9752 C   0  0  0  0  0  0  0  0  0  0  0  0
    6.4889   -3.7325   -1.3849 H   0  0  0  0  0  0  0  0  0  0  0  0
    6.5676   -5.0397   -3.1080 C   0  0  0  0  0  0  0  0  0  0  0  0
    6.6388   -4.3081   -3.9242 H   0  0  0  0  0  0  0  0  0  0  0  0
    5.9910   -5.8901   -3.4959 H   0  0  0  0  0  0  0  0  0  0  0  0
    7.9830   -5.4988   -2.7081 C   0  0  2  0  0  0  0  0  0  0  0  0
   -7.0449    2.3026    3.5358 N   0  0  0  0  0  0  0  0  0  0  0  0
    5.0672   -6.3381   -0.2618 N   0  0  0  0  0  0  0  0  0  0  0  0
   -8.1378    4.1864    0.9059 H   0  0  0  0  0  0  0  0  0  0  0  0
   -7.0602    5.4774    0.3774 H   0  0  0  0  0  0  0  0  0  0  0  0
   -7.9952    5.8538    2.2974 C   0  0  1  0  0  0  0  0  0  0  0  0
   -7.0895    7.0011    2.5191 C   0  0  0  0  0  0  0  0  0  0  0  0
   -8.1151    5.3147    3.2434 H   0  0  0  0  0  0  0  0  0  0  0  0
   -9.3747    6.3610    1.8292 C   0  0  0  0  0  0  0  0  0  0  0  0
    7.9259   -6.0244   -1.7488 H   0  0  0  0  0  0  0  0  0  0  0  0
    8.8595   -4.3194   -2.5472 C   0  0  0  0  0  0  0  0  0  0  0  0
    8.5706   -6.4513   -3.7694 C   0  0  0  0  0  0  0  0  0  0  0  0
    8.8111   -5.8824   -4.6776 H   0  0  0  0  0  0  0  0  0  0  0  0
    7.8184   -7.1995   -4.0536 H   0  0  0  0  0  0  0  0  0  0  0  0
    9.8331   -7.1712   -3.2537 C   0  0  1  0  0  0  0  0  0  0  0  0
   -6.3804    7.9042    2.6695 N   0  0  0  0  0  0  0  0  0  0  0  0
    9.5397   -3.3878   -2.4419 N   0  0  0  0  0  0  0  0  0  0  0  0
   -4.1475    1.2140   -0.1412 H   0  0  0  0  0  0  0  0  0  0  0  0
   -3.1643    2.5466   -0.7453 H   0  0  0  0  0  0  0  0  0  0  0  0
   -9.9634    5.5240    1.4300 H   0  0  0  0  0  0  0  0  0  0  0  0
   -9.2405    7.0749    1.0055 H   0  0  0  0  0  0  0  0  0  0  0  0
  -10.1540    7.0281    2.9815 C   0  0  2  0  0  0  0  0  0  0  0  0
   -9.4902    7.7307    3.4971 H   0  0  0  0  0  0  0  0  0  0  0  0
  -10.5928    5.9954    3.9445 C   0  0  0  0  0  0  0  0  0  0  0  0
  -11.3806    7.7972    2.4463 C   0  0  0  0  0  0  0  0  0  0  0  0
    9.4630   -8.1268   -2.1878 C   0  0  0  0  0  0  0  0  0  0  0  0
   10.5171   -6.4246   -2.8353 H   0  0  0  0  0  0  0  0  0  0  0  0
   10.5468   -7.9244   -4.3966 C   0  0  0  0  0  0  0  0  0  0  0  0
   10.6055   -7.2829   -5.2862 H   0  0  0  0  0  0  0  0  0  0  0  0
    9.9526   -8.8037   -4.6791 H   0  0  0  0  0  0  0  0  0  0  0  0
   11.9688   -8.3607   -3.9822 C   0  0  2  0  0  0  0  0  0  0  0  0
    9.1575   -8.8837   -1.3662 N   0  0  0  0  0  0  0  0  0  0  0  0
  -10.9450    5.1737    4.6807 N   0  0  0  0  0  0  0  0  0  0  0  0
  -12.1305    7.0789    2.0886 H   0  0  0  0  0  0  0  0  0  0  0  0
  -11.0875    8.4068    1.5810 H   0  0  0  0  0  0  0  0  0  0  0  0
  -12.0021    8.7074    3.5280 C   0  0  1  0  0  0  0  0  0  0  0  0
  -11.1022    9.8489    3.7957 C   0  0  0  0  0  0  0  0  0  0  0  0
  -12.1166    8.1283    4.4506 H   0  0  0  0  0  0  0  0  0  0  0  0
  -13.3880    9.2277    3.0880 C   0  0  0  0  0  0  0  0  0  0  0  0
  -10.3945   10.7461    3.9839 N   0  0  0  0  0  0  0  0  0  0  0  0
   11.9252   -8.8101   -2.9841 H   0  0  0  0  0  0  0  0  0  0  0  0
   12.8495   -7.1741   -3.9299 C   0  0  0  0  0  0  0  0  0  0  0  0
   12.5464   -9.3975   -4.9696 C   0  0  0  0  0  0  0  0  0  0  0  0
   12.7723   -8.9021   -5.9234 H   0  0  0  0  0  0  0  0  0  0  0  0
   11.7922  -10.1669   -5.1830 H   0  0  0  0  0  0  0  0  0  0  0  0
   13.8217  -10.0705   -4.4118 C   0  0  1  0  0  0  0  0  0  0  0  0
   13.5286   -6.2360   -3.9119 N   0  0  0  0  0  0  0  0  0  0  0  0
  -14.1709    9.8547    4.2647 C   0  0  2  0  0  0  0  0  0  0  0  0
  -13.5203   10.5667    4.7842 H   0  0  0  0  0  0  0  0  0  0  0  0
  -14.5731    8.7923    5.2109 C   0  0  0  0  0  0  0  0  0  0  0  0
  -15.4273   10.5980    3.7593 C   0  0  0  0  0  0  0  0  0  0  0  0
  -14.9007    7.9454    5.9299 N   0  0  0  0  0  0  0  0  0  0  0  0
   13.4597  -10.9956   -3.3180 C   0  0  0  0  0  0  0  0  0  0  0  0
   14.5744  -10.8398   -5.5196 C   0  0  0  0  0  0  0  0  0  0  0  0
   14.6506  -10.2076   -6.4147 H   0  0  0  0  0  0  0  0  0  0  0  0
   13.9933  -11.7262   -5.8080 H   0  0  0  0  0  0  0  0  0  0  0  0
   15.9957  -11.2712   -5.0825 C   0  0  2  0  0  0  0  0  0  0  0  0
  -13.9743    8.4019    2.6627 H   0  0  0  0  0  0  0  0  0  0  0  0
  -13.2615    9.9701    2.2885 H   0  0  0  0  0  0  0  0  0  0  0  0
   14.4796   -9.2931   -4.0093 H   0  0  0  0  0  0  0  0  0  0  0  0
   13.1620  -11.7311   -2.4741 N   0  0  0  0  0  0  0  0  0  0  0  0
  -16.1525    9.8641    3.3824 H   0  0  0  0  0  0  0  0  0  0  0  0
  -15.1574   11.2391    2.9090 H   0  0  0  0  0  0  0  0  0  0  0  0
  -16.0851   11.4616    4.8637 C   0  0  1  0  0  0  0  0  0  0  0  0
  -15.2375   12.6389    5.1398 C   0  0  0  0  0  0  0  0  0  0  0  0
  -16.1698   10.8642    5.7776 H   0  0  0  0  0  0  0  0  0  0  0  0
  -17.4982   11.9118    4.4308 C   0  0  0  0  0  0  0  0  0  0  0  0
  -14.5684   13.5644    5.3335 N   0  0  0  0  0  0  0  0  0  0  0  0
   15.9266  -11.8128   -4.1326 H   0  0  0  0  0  0  0  0  0  0  0  0
   16.8393  -10.0728   -4.8952 C   0  0  0  0  0  0  0  0  0  0  0  0
   16.6303  -12.1974   -6.1441 C   0  0  0  0  0  0  0  0  0  0  0  0
   16.7717  -11.6288   -7.0735 H   0  0  0  0  0  0  0  0  0  0  0  0
   15.9307  -13.0117   -6.3779 H   0  0  0  0  0  0  0  0  0  0  0  0
   17.9871  -12.7990   -5.7012 C   0  0  1  0  0  0  0  0  0  0  0  0
   17.4888   -9.1222   -4.7683 N   0  0  0  0  0  0  0  0  0  0  0  0
  -18.0658   11.0324    4.0963 H   0  0  0  0  0  0  0  0  0  0  0  0
  -17.4135   12.5794    3.5625 H   0  0  0  0  0  0  0  0  0  0  0  0
  -18.2946   12.6301    5.5488 C   0  0  2  0  0  0  0  0  0  0  0  0
  -17.7047   13.4770    5.9163 H   0  0  0  0  0  0  0  0  0  0  0  0
  -18.5518   11.6997    6.6660 C   0  0  0  0  0  0  0  0  0  0  0  0
  -19.6335   13.1561    4.9860 C   0  0  0  0  0  0  0  0  0  0  0  0
  -18.7623   10.9553    7.5287 N   0  0  0  0  0  0  0  0  0  0  0  0
   17.7737  -13.7686   -4.6084 C   0  0  0  0  0  0  0  0  0  0  0  0
   18.6329  -11.9921   -5.3396 H   0  0  0  0  0  0  0  0  0  0  0  0
   18.6769  -13.4941   -6.8964 C   0  0  0  0  0  0  0  0  0  0  0  0
   18.6708  -12.8124   -7.7581 H   0  0  0  0  0  0  0  0  0  0  0  0
   18.0890  -14.3747   -7.1904 H   0  0  0  0  0  0  0  0  0  0  0  0
   20.1325  -13.9281   -6.6123 C   0  0  2  0  0  0  0  0  0  0  0  0
   17.5913  -14.5411   -3.7642 N   0  0  0  0  0  0  0  0  0  0  0  0
   20.1625  -14.5587   -5.7162 H   0  0  0  0  0  0  0  0  0  0  0  0
   20.9951  -12.7509   -6.3983 C   0  0  0  0  0  0  0  0  0  0  0  0
   20.6735  -14.7501   -7.7818 C   0  0  0  0  0  0  0  0  0  0  0  0
   20.6617  -14.1750   -8.7149 H   0  0  0  0  0  0  0  0  0  0  0  0
   20.0738  -15.6539   -7.9316 H   0  0  0  0  0  0  0  0  0  0  0  0
   21.7082  -15.0596   -7.5965 H   0  0  0  0  0  0  0  0  0  0  0  0
   21.6427  -11.8043   -6.2290 N   0  0  0  0  0  0  0  0  0  0  0  0
  -20.2663   12.3065    4.6958 H   0  0  0  0  0  0  0  0  0  0  0  0
  -19.4403   13.7308    4.0705 H   0  0  0  0  0  0  0  0  0  0  0  0
  -20.4250   14.0335    5.9670 C   0  0  0  0  0  0  0  0  0  0  0  0
  -19.7393   15.3056    6.2283 C   0  0  0  0  0  0  0  0  0  0  0  0
  -20.6063   13.5028    6.9075 H   0  0  0  0  0  0  0  0  0  0  0  0
  -21.4085   14.2441    5.5314 H   0  0  0  0  0  0  0  0  0  0  0  0
  -19.1688   16.2974    6.4150 N   0  0  0  0  0  0  0  0  0  0  0  0
  1  2  1  0  0  0  0
  1  3  1  0  0  0  0
  1  4  1  0  0  0  0
  1  5  1  1  0  0  0
  6  2  1  0  0  0  0
  6 17  1  1  0  0  0
  7  2  1  0  0  0  0
  8  2  1  0  0  0  0
  9  3  3  0  0  0  0
 10  4  1  0  0  0  0
 11  4  1  0  0  0  0
 12  4  1  0  0  0  0
 12 13  1  1  0  0  0
 14 12  1  0  0  0  0
 15 12  1  0  0  0  0
 16  6  1  0  0  0  0
 18  6  1  0  0  0  0
 19 18  1  0  0  0  0
 20 18  1  0  0  0  0
 21 18  1  0  0  0  0
 21 28  1  1  0  0  0
 22 14  3  0  0  0  0
 23 16  3  0  0  0  0
 24 15  1  0  0  0  0
 24 26  1  1  0  0  0
 25 24  1  0  0  0  0
 27 24  1  0  0  0  0
 29 21  1  0  0  0  0
 30 21  1  0  0  0  0
 31 30  1  0  0  0  0
 32 30  1  0  0  0  0
 33 30  1  0  0  0  0
 33 43  1  1  0  0  0
 34 25  3  0  0  0  0
 35 29  3  0  0  0  0
 36 27  1  0  0  0  0
 37 27  1  0  0  0  0
 38 27  1  0  0  0  0
 38 39  1  1  0  0  0
 40 38  1  0  0  0  0
 41 38  1  0  0  0  0
 42 33  1  0  0  0  0
 44 33  1  0  0  0  0
 45 44  1  0  0  0  0
 46 44  1  0  0  0  0
 47 44  1  0  0  0  0
 47 56  1  1  0  0  0
 48 40  3  0  0  0  0
 49 42  3  0  0  0  0
 50 41  1  0  0  0  0
 51 41  1  0  0  0  0
 52 41  1  0  0  0  0
 52 54  1  1  0  0  0
 53 52  1  0  0  0  0
 55 52  1  0  0  0  0
 57 47  1  0  0  0  0
 58 47  1  0  0  0  0
 59 58  1  0  0  0  0
 60 58  1  0  0  0  0
 61 58  1  0  0  0  0
 61 73  1  1  0  0  0
 62 53  3  0  0  0  0
 63 57  3  0  0  0  0
 64 15  1  0  0  0  0
 65 15  1  0  0  0  0
 66 55  1  0  0  0  0
 67 55  1  0  0  0  0
 68 55  1  0  0  0  0
 68 69  1  1  0  0  0
 70 68  1  0  0  0  0
 71 68  1  0  0  0  0
 72 61  1  0  0  0  0
 74 61  1  0  0  0  0
 75 74  1  0  0  0  0
 76 74  1  0  0  0  0
 77 74  1  0  0  0  0
 77 87  1  1  0  0  0
 78 72  3  0  0  0  0
 79 70  3  0  0  0  0
 80 71  1  0  0  0  0
 81 71  1  0  0  0  0
 82 71  1  0  0  0  0
 82 84  1  1  0  0  0
 83 82  1  0  0  0  0
 85 82  1  0  0  0  0
 86 83  3  0  0  0  0
 88 77  1  0  0  0  0
 89 77  1  0  0  0  0
 90 89  1  0  0  0  0
 91 89  1  0  0  0  0
 92 89  1  0  0  0  0
 92106  1  1  0  0  0
 93 88  3  0  0  0  0
 94 85  1  0  0  0  0
 94 95  1  1  0  0  0
 96 94  1  0  0  0  0
 97 94  1  0  0  0  0
 98 96  3  0  0  0  0
 99 92  1  0  0  0  0
100 92  1  0  0  0  0
101100  1  0  0  0  0
102100  1  0  0  0  0
103100  1  0  0  0  0
103115  1  1  0  0  0
104 85  1  0  0  0  0
105 85  1  0  0  0  0
107 99  3  0  0  0  0
108 97  1  0  0  0  0
109 97  1  0  0  0  0
110 97  1  0  0  0  0
110112  1  1  0  0  0
111110  1  0  0  0  0
113110  1  0  0  0  0
114111  3  0  0  0  0
116103  1  0  0  0  0
117103  1  0  0  0  0
118117  1  0  0  0  0
119117  1  0  0  0  0
120117  1  0  0  0  0
120130  1  1  0  0  0
121116  3  0  0  0  0
122113  1  0  0  0  0
123113  1  0  0  0  0
124113  1  0  0  0  0
124125  1  1  0  0  0
126124  1  0  0  0  0
127124  1  0  0  0  0
128126  3  0  0  0  0
129120  1  0  0  0  0
131120  1  0  0  0  0
132131  1  0  0  0  0
133131  1  0  0  0  0
134131  1  0  0  0  0
134136  1  1  0  0  0
135129  3  0  0  0  0
137134  1  0  0  0  0
138134  1  0  0  0  0
139138  1  0  0  0  0
140138  1  0  0  0  0
141138  1  0  0  0  0
142137  3  0  0  0  0
143127  1  0  0  0  0
144127  1  0  0  0  0
145127  1  0  0  0  0
146145  1  0  0  0  0
147145  1  0  0  0  0
148145  1  0  0  0  0
149146  3  0  0  0  0
M  END
