
 OpenBabel06251217383D

112111  0  0  0  0  0  0  0  0999 V2000
   -1.7369   -1.3980   -0.5221 C   0  0  0  0  0  0  0  0  0  0  0  0
   -1.8771   -0.1812   -1.9240 Si  0  0  0  0  0  0  0  0  0  0  0  0
   -1.1491    1.2616   -1.5399 O   0  0  0  0  0  0  0  0  0  0  0  0
   -3.3169    0.1072   -2.1266 H   0  0  0  0  0  0  0  0  0  0  0  0
   -1.2205   -0.9416   -3.4898 C   0  0  0  0  0  0  0  0  0  0  0  0
   -1.9421   -0.9131    0.4370 H   0  0  0  0  0  0  0  0  0  0  0  0
   -0.7324   -1.8274   -0.4753 H   0  0  0  0  0  0  0  0  0  0  0  0
   -2.4461   -2.2214   -0.6454 H   0  0  0  0  0  0  0  0  0  0  0  0
   -1.7398   -1.8780   -3.7150 H   0  0  0  0  0  0  0  0  0  0  0  0
   -0.1527   -1.1645   -3.4019 H   0  0  0  0  0  0  0  0  0  0  0  0
   -1.3561   -0.2690   -4.3419 H   0  0  0  0  0  0  0  0  0  0  0  0
    0.0560    2.2920   -2.0395 Si  0  0  0  0  0  0  0  0  0  0  0  0
    0.3114    3.6498   -0.7707 C   0  0  0  0  0  0  0  0  0  0  0  0
   -0.4009    3.1249   -3.6615 C   0  0  0  0  0  0  0  0  0  0  0  0
    1.4412    1.3973   -2.2511 O   0  0  0  0  0  0  0  0  0  0  0  0
   -1.3310    3.6908   -3.5577 H   0  0  0  0  0  0  0  0  0  0  0  0
   -0.5330    2.3836   -4.4547 H   0  0  0  0  0  0  0  0  0  0  0  0
    0.3885    3.8171   -3.9704 H   0  0  0  0  0  0  0  0  0  0  0  0
    0.6973    3.2419    0.1679 H   0  0  0  0  0  0  0  0  0  0  0  0
   -0.6325    4.1604   -0.5590 H   0  0  0  0  0  0  0  0  0  0  0  0
    1.0215    4.3930   -1.1426 H   0  0  0  0  0  0  0  0  0  0  0  0
    2.6591    0.6365   -1.4161 Si  0  0  0  0  0  0  0  0  0  0  0  0
    3.3182   -0.7877   -2.4495 C   0  0  0  0  0  0  0  0  0  0  0  0
    2.0668   -0.0781    0.2128 C   0  0  0  0  0  0  0  0  0  0  0  0
    3.8561    1.7434   -1.1107 O   0  0  0  0  0  0  0  0  0  0  0  0
    3.6324   -0.4343   -3.4357 H   0  0  0  0  0  0  0  0  0  0  0  0
    2.5435   -1.5471   -2.5922 H   0  0  0  0  0  0  0  0  0  0  0  0
    4.1755   -1.2590   -1.9603 H   0  0  0  0  0  0  0  0  0  0  0  0
    1.3005   -0.8384    0.0507 H   0  0  0  0  0  0  0  0  0  0  0  0
    1.6498    0.7047    0.8528 H   0  0  0  0  0  0  0  0  0  0  0  0
    2.8994   -0.5455    0.7475 H   0  0  0  0  0  0  0  0  0  0  0  0
    4.6391    3.0619   -1.7384 Si  0  0  0  0  0  0  0  0  0  0  0  0
    4.3372    4.5614   -0.6467 C   0  0  0  0  0  0  0  0  0  0  0  0
    4.0769    3.4833   -3.4743 C   0  0  0  0  0  0  0  0  0  0  0  0
    6.2621    2.7268   -1.7388 O   0  0  0  0  0  0  0  0  0  0  0  0
    7.3645    1.5207   -2.0145 Si  0  0  0  0  0  0  0  0  0  0  0  0
    7.0036    0.5906   -3.5988 C   0  0  0  0  0  0  0  0  0  0  0  0
    7.3872    0.2992   -0.5954 C   0  0  0  0  0  0  0  0  0  0  0  0
    8.8440    2.2757   -2.1436 O   0  0  0  0  0  0  0  0  0  0  0  0
    9.4494    3.8077   -2.3994 Si  0  0  0  0  0  0  0  0  0  0  0  0
    4.6511    4.3521    0.3804 H   0  0  0  0  0  0  0  0  0  0  0  0
    3.2785    4.8295   -0.6331 H   0  0  0  0  0  0  0  0  0  0  0  0
    4.9062    5.4222   -1.0098 H   0  0  0  0  0  0  0  0  0  0  0  0
    3.0174    3.7521   -3.4904 H   0  0  0  0  0  0  0  0  0  0  0  0
    4.2284    2.6372   -4.1509 H   0  0  0  0  0  0  0  0  0  0  0  0
    4.6461    4.3334   -3.8631 H   0  0  0  0  0  0  0  0  0  0  0  0
    6.4250   -0.2134   -0.5063 H   0  0  0  0  0  0  0  0  0  0  0  0
    7.5899    0.8118    0.3498 H   0  0  0  0  0  0  0  0  0  0  0  0
    8.1645   -0.4557   -0.7467 H   0  0  0  0  0  0  0  0  0  0  0  0
    6.9752    1.2746   -4.4520 H   0  0  0  0  0  0  0  0  0  0  0  0
    6.0428    0.0741   -3.5412 H   0  0  0  0  0  0  0  0  0  0  0  0
    7.7796   -0.1574   -3.7886 H   0  0  0  0  0  0  0  0  0  0  0  0
    9.0720    4.9255   -0.9406 C   0  0  0  0  0  0  0  0  0  0  0  0
    8.7151    4.5799   -3.9416 C   0  0  0  0  0  0  0  0  0  0  0  0
   11.0950    3.6450   -2.5764 O   0  0  0  0  0  0  0  0  0  0  0  0
   12.2848    2.5118   -2.3133 Si  0  0  0  0  0  0  0  0  0  0  0  0
   12.2291    1.1764   -3.6263 C   0  0  0  0  0  0  0  0  0  0  0  0
   12.0945    1.6942   -0.6342 C   0  0  0  0  0  0  0  0  0  0  0  0
   13.7328    3.3280   -2.3800 O   0  0  0  0  0  0  0  0  0  0  0  0
   14.3353    4.8597   -2.1226 Si  0  0  0  0  0  0  0  0  0  0  0  0
    9.4728    4.4998   -0.0158 H   0  0  0  0  0  0  0  0  0  0  0  0
    7.9929    5.0565   -0.8179 H   0  0  0  0  0  0  0  0  0  0  0  0
    9.5215    5.9124   -1.0854 H   0  0  0  0  0  0  0  0  0  0  0  0
    7.6327    4.7018   -3.8411 H   0  0  0  0  0  0  0  0  0  0  0  0
    8.9100    3.9522   -4.8162 H   0  0  0  0  0  0  0  0  0  0  0  0
    9.1539    5.5654   -4.1240 H   0  0  0  0  0  0  0  0  0  0  0  0
   11.1568    1.1338   -0.5757 H   0  0  0  0  0  0  0  0  0  0  0  0
   12.0969    2.4434    0.1631 H   0  0  0  0  0  0  0  0  0  0  0  0
   12.9186    0.9982   -0.4514 H   0  0  0  0  0  0  0  0  0  0  0  0
   12.3399    1.6125   -4.6235 H   0  0  0  0  0  0  0  0  0  0  0  0
   11.2771    0.6381   -3.5926 H   0  0  0  0  0  0  0  0  0  0  0  0
   13.0365    0.4535   -3.4773 H   0  0  0  0  0  0  0  0  0  0  0  0
   15.9788    4.6861   -1.8944 O   0  0  0  0  0  0  0  0  0  0  0  0
   17.0644    3.4523   -1.6055 Si  0  0  0  0  0  0  0  0  0  0  0  0
   13.5617    5.6557   -0.6099 C   0  0  0  0  0  0  0  0  0  0  0  0
   13.9935    5.9539   -3.6050 C   0  0  0  0  0  0  0  0  0  0  0  0
   17.0629    2.2221   -3.0245 C   0  0  0  0  0  0  0  0  0  0  0  0
   16.6232    2.5297   -0.0320 C   0  0  0  0  0  0  0  0  0  0  0  0
   18.5710    4.1383   -1.4563 O   0  0  0  0  0  0  0  0  0  0  0  0
   19.3612    5.5797   -1.7152 Si  0  0  0  0  0  0  0  0  0  0  0  0
   13.7234    5.0371    0.2778 H   0  0  0  0  0  0  0  0  0  0  0  0
   12.4841    5.7868   -0.7449 H   0  0  0  0  0  0  0  0  0  0  0  0
   14.0033    6.6396   -0.4260 H   0  0  0  0  0  0  0  0  0  0  0  0
   12.9167    6.0668   -3.7629 H   0  0  0  0  0  0  0  0  0  0  0  0
   14.4275    5.5206   -4.5109 H   0  0  0  0  0  0  0  0  0  0  0  0
   14.4246    6.9487   -3.4605 H   0  0  0  0  0  0  0  0  0  0  0  0
   15.6386    2.0605   -0.1177 H   0  0  0  0  0  0  0  0  0  0  0  0
   16.6040    3.2132    0.8219 H   0  0  0  0  0  0  0  0  0  0  0  0
   17.3583    1.7459    0.1728 H   0  0  0  0  0  0  0  0  0  0  0  0
   17.2674    2.7288   -3.9723 H   0  0  0  0  0  0  0  0  0  0  0  0
   16.0939    1.7210   -3.1059 H   0  0  0  0  0  0  0  0  0  0  0  0
   17.8302    1.4576   -2.8714 H   0  0  0  0  0  0  0  0  0  0  0  0
   18.8893    6.8266   -0.3967 C   0  0  0  0  0  0  0  0  0  0  0  0
   18.9230    6.3013   -3.3911 C   0  0  0  0  0  0  0  0  0  0  0  0
   21.0009    5.2474   -1.6457 O   0  0  0  0  0  0  0  0  0  0  0  0
   21.9771    3.8991   -1.5034 Si  0  0  0  0  0  0  0  0  0  0  0  0
   21.6677    2.7129   -2.9231 C   0  0  0  0  0  0  0  0  0  0  0  0
   21.6470    3.0014    0.1071 C   0  0  0  0  0  0  0  0  0  0  0  0
   23.5446    4.4642   -1.5504 O   0  0  0  0  0  0  0  0  0  0  0  0
   23.6425    5.3351   -1.9698 H   0  0  0  0  0  0  0  0  0  0  0  0
   19.1283    6.4422    0.5993 H   0  0  0  0  0  0  0  0  0  0  0  0
   17.8165    7.0391   -0.4319 H   0  0  0  0  0  0  0  0  0  0  0  0
   19.4294    7.7667   -0.5408 H   0  0  0  0  0  0  0  0  0  0  0  0
   17.8558    6.5361   -3.4473 H   0  0  0  0  0  0  0  0  0  0  0  0
   19.1602    5.5932   -4.1905 H   0  0  0  0  0  0  0  0  0  0  0  0
   19.4837    7.2231   -3.5718 H   0  0  0  0  0  0  0  0  0  0  0  0
   20.6213    2.6213    0.1390 H   0  0  0  0  0  0  0  0  0  0  0  0
   21.7873    3.6726    0.9595 H   0  0  0  0  0  0  0  0  0  0  0  0
   22.3266    2.1524    0.2238 H   0  0  0  0  0  0  0  0  0  0  0  0
   21.8256    3.2107   -3.8843 H   0  0  0  0  0  0  0  0  0  0  0  0
   20.6406    2.3362   -2.8991 H   0  0  0  0  0  0  0  0  0  0  0  0
   22.3448    1.8557   -2.8651 H   0  0  0  0  0  0  0  0  0  0  0  0
  1  2  1  0  0  0  0
  3  2  1  0  0  0  0
  4  2  1  0  0  0  0
  5  2  1  0  0  0  0
  6  1  1  0  0  0  0
  7  1  1  0  0  0  0
  8  1  1  0  0  0  0
  9  5  1  0  0  0  0
 10  5  1  0  0  0  0
 11  5  1  0  0  0  0
 12  3  1  0  0  0  0
 13 12  1  0  0  0  0
 14 12  1  0  0  0  0
 15 12  1  0  0  0  0
 16 14  1  0  0  0  0
 17 14  1  0  0  0  0
 18 14  1  0  0  0  0
 19 13  1  0  0  0  0
 20 13  1  0  0  0  0
 21 13  1  0  0  0  0
 22 15  1  0  0  0  0
 23 22  1  0  0  0  0
 24 22  1  0  0  0  0
 25 22  1  0  0  0  0
 26 23  1  0  0  0  0
 27 23  1  0  0  0  0
 28 23  1  0  0  0  0
 29 24  1  0  0  0  0
 30 24  1  0  0  0  0
 31 24  1  0  0  0  0
 32 25  1  0  0  0  0
 33 32  1  0  0  0  0
 34 32  1  0  0  0  0
 35 32  1  0  0  0  0
 36 35  1  0  0  0  0
 37 36  1  0  0  0  0
 38 36  1  0  0  0  0
 39 36  1  0  0  0  0
 40 39  1  0  0  0  0
 41 33  1  0  0  0  0
 42 33  1  0  0  0  0
 43 33  1  0  0  0  0
 44 34  1  0  0  0  0
 45 34  1  0  0  0  0
 46 34  1  0  0  0  0
 47 38  1  0  0  0  0
 48 38  1  0  0  0  0
 49 38  1  0  0  0  0
 50 37  1  0  0  0  0
 51 37  1  0  0  0  0
 52 37  1  0  0  0  0
 53 40  1  0  0  0  0
 54 40  1  0  0  0  0
 55 40  1  0  0  0  0
 56 55  1  0  0  0  0
 57 56  1  0  0  0  0
 58 56  1  0  0  0  0
 59 56  1  0  0  0  0
 60 59  1  0  0  0  0
 61 53  1  0  0  0  0
 62 53  1  0  0  0  0
 63 53  1  0  0  0  0
 64 54  1  0  0  0  0
 65 54  1  0  0  0  0
 66 54  1  0  0  0  0
 67 58  1  0  0  0  0
 68 58  1  0  0  0  0
 69 58  1  0  0  0  0
 70 57  1  0  0  0  0
 71 57  1  0  0  0  0
 72 57  1  0  0  0  0
 73 60  1  0  0  0  0
 74 73  1  0  0  0  0
 75 60  1  0  0  0  0
 76 60  1  0  0  0  0
 77 74  1  0  0  0  0
 78 74  1  0  0  0  0
 79 74  1  0  0  0  0
 80 79  1  0  0  0  0
 81 75  1  0  0  0  0
 82 75  1  0  0  0  0
 83 75  1  0  0  0  0
 84 76  1  0  0  0  0
 85 76  1  0  0  0  0
 86 76  1  0  0  0  0
 87 78  1  0  0  0  0
 88 78  1  0  0  0  0
 89 78  1  0  0  0  0
 90 77  1  0  0  0  0
 91 77  1  0  0  0  0
 92 77  1  0  0  0  0
 93 80  1  0  0  0  0
 94 80  1  0  0  0  0
 95 80  1  0  0  0  0
 96 95  1  0  0  0  0
 97 96  1  0  0  0  0
 98 96  1  0  0  0  0
 99 96  1  0  0  0  0
100 99  1  0  0  0  0
101 93  1  0  0  0  0
102 93  1  0  0  0  0
103 93  1  0  0  0  0
104 94  1  0  0  0  0
105 94  1  0  0  0  0
106 94  1  0  0  0  0
107 98  1  0  0  0  0
108 98  1  0  0  0  0
109 98  1  0  0  0  0
110 97  1  0  0  0  0
111 97  1  0  0  0  0
112 97  1  0  0  0  0
M  END
