
 OpenBabel06221217343D

 20 19  0  0  0  0  0  0  0  0999 V2000
   -2.4670    0.6062    0.2673 C   0  0  0  0  0  0  0  0  0  0  0  0
   -0.9780    0.8977    0.3675 C   0  0  0  0  0  0  0  0  0  0  0  0
   -0.1422   -0.2855   -0.1206 C   0  0  0  0  0  0  0  0  0  0  0  0
    1.3541    0.0196   -0.0394 C   0  0  0  0  0  0  0  0  0  0  0  0
    2.1898   -1.1665   -0.5166 C   0  0  0  0  0  0  0  0  0  0  0  0
   -2.7589    0.4087   -0.7689 H   0  0  0  0  0  0  0  0  0  0  0  0
   -2.7384   -0.2640    0.8732 H   0  0  0  0  0  0  0  0  0  0  0  0
   -3.0457    1.4636    0.6254 H   0  0  0  0  0  0  0  0  0  0  0  0
   -0.7458    1.7889   -0.2270 H   0  0  0  0  0  0  0  0  0  0  0  0
   -0.7254    1.1271    1.4090 H   0  0  0  0  0  0  0  0  0  0  0  0
   -0.3708   -1.1709    0.4852 H   0  0  0  0  0  0  0  0  0  0  0  0
   -0.4120   -0.5241   -1.1563 H   0  0  0  0  0  0  0  0  0  0  0  0
    1.5836    0.9029   -0.6487 H   0  0  0  0  0  0  0  0  0  0  0  0
    1.6265    0.2704    0.9932 H   0  0  0  0  0  0  0  0  0  0  0  0
    1.9929   -2.0364    0.1198 H   0  0  0  0  0  0  0  0  0  0  0  0
    1.9310   -1.4146   -1.5515 H   0  0  0  0  0  0  0  0  0  0  0  0
    3.6636   -0.8666   -0.4618 C   0  0  0  0  0  0  0  0  0  0  0  0
    4.1983    0.1860   -0.1603 O   0  0  0  0  0  0  0  0  0  0  0  0
    4.4056   -1.9363   -0.8101 O   0  0  0  0  0  0  0  0  0  0  0  0
    5.3292   -1.6158   -0.7410 H   0  0  0  0  0  0  0  0  0  0  0  0
  1  2  1  0  0  0  0
  1  6  1  0  0  0  0
  1  7  1  0  0  0  0
  1  8  1  0  0  0  0
  2  3  1  0  0  0  0
  2  9  1  0  0  0  0
  2 10  1  0  0  0  0
  3  4  1  0  0  0  0
  3 11  1  0  0  0  0
  3 12  1  0  0  0  0
  4  5  1  0  0  0  0
  4 13  1  0  0  0  0
  4 14  1  0  0  0  0
  5 15  1  0  0  0  0
  5 16  1  0  0  0  0
  5 17  1  0  0  0  0
 18 17  2  0  0  0  0
 19 17  1  0  0  0  0
 20 19  1  0  0  0  0
M  END
