
 OpenBabel06181210113D

 21 21  0  0  0  0  0  0  0  0999 V2000
    0.2514    0.5331   -0.0325 C   0  0  0  0  0  0  0  0  0  0  0  0
    1.0254   -0.5501   -0.4993 C   0  0  0  0  0  0  0  0  0  0  0  0
    0.7462   -1.8443   -0.0293 C   0  0  0  0  0  0  0  0  0  0  0  0
   -0.2850   -2.0698    0.8820 C   0  0  0  0  0  0  0  0  0  0  0  0
   -1.0526   -1.0045    1.3376 C   0  0  0  0  0  0  0  0  0  0  0  0
   -0.7881    0.2865    0.8821 C   0  0  0  0  0  0  0  0  0  0  0  0
    0.4741    1.9532   -0.5017 C   0  0  0  0  0  0  0  0  0  0  0  0
   -0.3620    2.2856   -1.7289 C   0  0  0  0  0  0  0  0  0  0  0  0
    2.1511   -0.3604   -1.4787 C   0  0  0  0  0  0  0  0  0  0  0  0
    1.3345   -2.6921   -0.3744 H   0  0  0  0  0  0  0  0  0  0  0  0
   -0.4881   -3.0776    1.2341 H   0  0  0  0  0  0  0  0  0  0  0  0
   -1.8582   -1.1767    2.0461 H   0  0  0  0  0  0  0  0  0  0  0  0
   -1.4017    1.1081    1.2460 H   0  0  0  0  0  0  0  0  0  0  0  0
    0.2212    2.6483    0.3090 H   0  0  0  0  0  0  0  0  0  0  0  0
    1.5347    2.1278   -0.7120 H   0  0  0  0  0  0  0  0  0  0  0  0
   -1.4321    2.1800   -1.5207 H   0  0  0  0  0  0  0  0  0  0  0  0
   -0.1786    3.3182   -2.0422 H   0  0  0  0  0  0  0  0  0  0  0  0
   -0.1191    1.6286   -2.5702 H   0  0  0  0  0  0  0  0  0  0  0  0
    2.9370    0.2614   -1.0387 H   0  0  0  0  0  0  0  0  0  0  0  0
    1.7858    0.1052   -2.3988 H   0  0  0  0  0  0  0  0  0  0  0  0
    2.6069   -1.3166   -1.7576 H   0  0  0  0  0  0  0  0  0  0  0  0
  1  2  2  0  0  0  0
  1  6  1  0  0  0  0
  1  7  1  0  0  0  0
  2  3  1  0  0  0  0
  2  9  1  0  0  0  0
  3  4  2  0  0  0  0
  3 10  1  0  0  0  0
  4  5  1  0  0  0  0
  4 11  1  0  0  0  0
  5  6  2  0  0  0  0
  5 12  1  0  0  0  0
  6 13  1  0  0  0  0
  7  8  1  0  0  0  0
  7 14  1  0  0  0  0
  7 15  1  0  0  0  0
  8 16  1  0  0  0  0
  8 17  1  0  0  0  0
  8 18  1  0  0  0  0
 19  9  1  0  0  0  0
 20  9  1  0  0  0  0
 21  9  1  0  0  0  0
M  END
