
 OpenBabel06251217083D

 29 28  0  0  0  0  0  0  0  0999 V2000
    0.3604    0.1600   -0.3635 C   0  0  0  0  0  0  0  0  0  0  0  0
   -0.9373   -0.2118   -1.0910 C   0  0  0  0  0  0  0  0  0  0  0  0
   -1.5510    0.6929   -1.1845 H   0  0  0  0  0  0  0  0  0  0  0  0
   -0.7309   -0.5540   -2.1113 H   0  0  0  0  0  0  0  0  0  0  0  0
   -1.7686   -1.2477   -0.3477 C   0  0  0  0  0  0  0  0  0  0  0  0
   -2.0374   -0.8877    0.6509 H   0  0  0  0  0  0  0  0  0  0  0  0
   -1.2392   -2.1966   -0.2358 H   0  0  0  0  0  0  0  0  0  0  0  0
   -2.6969   -1.4448   -0.8934 H   0  0  0  0  0  0  0  0  0  0  0  0
    0.2509    0.0125    0.7185 H   0  0  0  0  0  0  0  0  0  0  0  0
    0.5147    1.2374   -0.5119 H   0  0  0  0  0  0  0  0  0  0  0  0
    1.6281   -0.5633   -0.8771 C   0  0  0  0  0  0  0  0  0  0  0  0
    1.7251   -0.3397   -1.9474 H   0  0  0  0  0  0  0  0  0  0  0  0
    1.5178   -2.0812   -0.7088 C   0  0  0  0  0  0  0  0  0  0  0  0
    2.8740   -0.0187   -0.1338 C   0  0  0  0  0  0  0  0  0  0  0  0
    3.1388   -0.6854    0.6977 H   0  0  0  0  0  0  0  0  0  0  0  0
    2.6275    0.9473    0.3267 H   0  0  0  0  0  0  0  0  0  0  0  0
    4.1078    0.2110   -1.0336 C   0  0  0  0  0  0  0  0  0  0  0  0
    0.7519   -2.4942   -1.3721 H   0  0  0  0  0  0  0  0  0  0  0  0
    1.2601   -2.3465    0.3224 H   0  0  0  0  0  0  0  0  0  0  0  0
    2.4544   -2.5881   -0.9545 H   0  0  0  0  0  0  0  0  0  0  0  0
    3.8288    0.9139   -1.8295 H   0  0  0  0  0  0  0  0  0  0  0  0
    4.6286   -1.0653   -1.6913 C   0  0  0  0  0  0  0  0  0  0  0  0
    5.2285    0.8602   -0.2157 C   0  0  0  0  0  0  0  0  0  0  0  0
    5.5556    0.2052    0.5993 H   0  0  0  0  0  0  0  0  0  0  0  0
    4.8940    1.8064    0.2225 H   0  0  0  0  0  0  0  0  0  0  0  0
    6.0972    1.0761   -0.8467 H   0  0  0  0  0  0  0  0  0  0  0  0
    3.9002   -1.4736   -2.3978 H   0  0  0  0  0  0  0  0  0  0  0  0
    4.8567   -1.8330   -0.9442 H   0  0  0  0  0  0  0  0  0  0  0  0
    5.5451   -0.8647   -2.2570 H   0  0  0  0  0  0  0  0  0  0  0  0
  1  2  1  0  0  0  0
  2  3  1  0  0  0  0
  2  4  1  0  0  0  0
  2  5  1  0  0  0  0
  6  5  1  0  0  0  0
  7  5  1  0  0  0  0
  8  5  1  0  0  0  0
  9  1  1  0  0  0  0
 10  1  1  0  0  0  0
 11  1  1  0  0  0  0
 12 11  1  0  0  0  0
 13 11  1  0  0  0  0
 14 11  1  0  0  0  0
 15 14  1  0  0  0  0
 16 14  1  0  0  0  0
 17 14  1  0  0  0  0
 18 13  1  0  0  0  0
 19 13  1  0  0  0  0
 20 13  1  0  0  0  0
 21 17  1  0  0  0  0
 22 17  1  0  0  0  0
 23 17  1  0  0  0  0
 24 23  1  0  0  0  0
 25 23  1  0  0  0  0
 26 23  1  0  0  0  0
 27 22  1  0  0  0  0
 28 22  1  0  0  0  0
 29 22  1  0  0  0  0
M  END
