
 OpenBabel07091212543D

 92 91  0  0  0  0  0  0  0  0999 V2000
   -0.0654    0.0930   -0.0726 C   0  0  0  0  0  0  0  0  0  0  0  0
    1.1878    0.0918    0.8193 C   0  0  0  0  0  0  0  0  0  0  0  0
   -1.2157    0.1571    0.7891 O   0  0  0  0  0  0  0  0  0  0  0  0
    2.3600   -0.0529    0.0169 O   0  0  0  0  0  0  0  0  0  0  0  0
   -2.4524   -0.1149    0.1291 C   0  0  0  0  0  0  0  0  0  0  0  0
   -3.5816   -0.2565    1.1639 C   0  0  0  0  0  0  0  0  0  0  0  0
   -4.8151   -0.4368    0.4453 O   0  0  0  0  0  0  0  0  0  0  0  0
   -5.9826   -0.3103    1.2577 C   0  0  0  0  0  0  0  0  0  0  0  0
    3.5898    0.1401    0.7382 C   0  0  0  0  0  0  0  0  0  0  0  0
    4.7197    0.2871   -0.2948 C   0  0  0  0  0  0  0  0  0  0  0  0
    4.4700    1.1146   -0.9683 H   0  0  0  0  0  0  0  0  0  0  0  0
    4.8027   -0.6152   -0.9118 H   0  0  0  0  0  0  0  0  0  0  0  0
    5.9553    0.5599    0.3665 O   0  0  0  0  0  0  0  0  0  0  0  0
   -0.0852   -0.8656   -0.6083 H   0  0  0  0  0  0  0  0  0  0  0  0
   -0.0237    1.2131   -1.1257 C   0  0  0  0  0  0  0  0  0  0  0  0
   -2.3726   -1.0186   -0.4862 H   0  0  0  0  0  0  0  0  0  0  0  0
   -2.7001    0.7124   -0.5455 H   0  0  0  0  0  0  0  0  0  0  0  0
   -3.6373    0.6907    1.7170 H   0  0  0  0  0  0  0  0  0  0  0  0
   -3.2940   -1.3729    2.1821 C   0  0  0  0  0  0  0  0  0  0  0  0
    1.1149   -0.7467    1.5211 H   0  0  0  0  0  0  0  0  0  0  0  0
    1.2397    1.0084    1.4183 H   0  0  0  0  0  0  0  0  0  0  0  0
    3.8817   -0.9717    1.7599 C   0  0  0  0  0  0  0  0  0  0  0  0
    3.5262    1.0885    1.2885 H   0  0  0  0  0  0  0  0  0  0  0  0
   -2.3413   -1.2072    2.6941 H   0  0  0  0  0  0  0  0  0  0  0  0
   -3.2266   -2.9935    1.4361 Cl  0  0  0  0  0  0  0  0  0  0  0  0
   -4.0747   -1.4172    2.9461 H   0  0  0  0  0  0  0  0  0  0  0  0
    0.8723    1.1383   -1.7493 H   0  0  0  0  0  0  0  0  0  0  0  0
   -0.0399    2.8461   -0.4044 Cl  0  0  0  0  0  0  0  0  0  0  0  0
   -0.8914    1.1602   -1.7884 H   0  0  0  0  0  0  0  0  0  0  0  0
    3.9641   -2.5934    1.0177 Cl  0  0  0  0  0  0  0  0  0  0  0  0
    3.0979   -1.0204    2.5204 H   0  0  0  0  0  0  0  0  0  0  0  0
    4.8310   -0.7977    2.2756 H   0  0  0  0  0  0  0  0  0  0  0  0
   -5.9232    0.5869    1.8846 H   0  0  0  0  0  0  0  0  0  0  0  0
   -6.0553   -1.1699    1.9336 H   0  0  0  0  0  0  0  0  0  0  0  0
   -7.2413   -0.2772    0.3746 C   0  0  0  0  0  0  0  0  0  0  0  0
   -7.2649   -1.2159   -0.1949 H   0  0  0  0  0  0  0  0  0  0  0  0
   -7.2083    0.8800   -0.6374 C   0  0  0  0  0  0  0  0  0  0  0  0
   -8.3844   -0.2444    1.2470 O   0  0  0  0  0  0  0  0  0  0  0  0
    7.1021    0.5257   -0.5013 C   0  0  0  0  0  0  0  0  0  0  0  0
    7.1417    1.6877   -1.5080 C   0  0  0  0  0  0  0  0  0  0  0  0
    7.0783   -0.4103   -1.0752 H   0  0  0  0  0  0  0  0  0  0  0  0
    8.3590    0.4857    0.3840 C   0  0  0  0  0  0  0  0  0  0  0  0
    8.2865   -0.3792    1.0529 H   0  0  0  0  0  0  0  0  0  0  0  0
    8.4177    1.3782    1.0178 H   0  0  0  0  0  0  0  0  0  0  0  0
    9.5257    0.3682   -0.4305 O   0  0  0  0  0  0  0  0  0  0  0  0
    7.1299    3.2901   -0.7211 Cl  0  0  0  0  0  0  0  0  0  0  0  0
    6.2713    1.6630   -2.1689 H   0  0  0  0  0  0  0  0  0  0  0  0
    8.0352    1.6374   -2.1376 H   0  0  0  0  0  0  0  0  0  0  0  0
   -6.3181    0.8270   -1.2715 H   0  0  0  0  0  0  0  0  0  0  0  0
   -7.2160    2.4862    0.1419 Cl  0  0  0  0  0  0  0  0  0  0  0  0
   -8.0827    0.8515   -1.2930 H   0  0  0  0  0  0  0  0  0  0  0  0
   -9.6265   -0.4933    0.5884 C   0  0  0  0  0  0  0  0  0  0  0  0
   -9.5468   -1.3608   -0.0770 H   0  0  0  0  0  0  0  0  0  0  0  0
   -9.8902    0.3675   -0.0365 H   0  0  0  0  0  0  0  0  0  0  0  0
  -10.7396   -0.7043    1.6286 C   0  0  0  0  0  0  0  0  0  0  0  0
  -10.8025    0.2121    2.2305 H   0  0  0  0  0  0  0  0  0  0  0  0
  -10.4214   -1.8680    2.5833 C   0  0  0  0  0  0  0  0  0  0  0  0
  -11.9788   -0.8701    0.9169 O   0  0  0  0  0  0  0  0  0  0  0  0
   10.7600    0.5207    0.2929 C   0  0  0  0  0  0  0  0  0  0  0  0
  -13.1371   -0.7800    1.7470 C   0  0  0  0  0  0  0  0  0  0  0  0
   11.0523   -0.6418    1.2567 C   0  0  0  0  0  0  0  0  0  0  0  0
   10.7042    1.4412    0.8894 H   0  0  0  0  0  0  0  0  0  0  0  0
   11.8850    0.7117   -0.7373 C   0  0  0  0  0  0  0  0  0  0  0  0
   11.6424    1.5761   -1.3658 H   0  0  0  0  0  0  0  0  0  0  0  0
   11.9563   -0.1579   -1.4010 H   0  0  0  0  0  0  0  0  0  0  0  0
   13.1233    0.9383   -0.0661 O   0  0  0  0  0  0  0  0  0  0  0  0
   -9.4640   -1.7149    3.0904 H   0  0  0  0  0  0  0  0  0  0  0  0
  -10.3405   -3.4464    1.7518 Cl  0  0  0  0  0  0  0  0  0  0  0  0
  -11.1898   -1.9649    3.3546 H   0  0  0  0  0  0  0  0  0  0  0  0
   11.1191   -2.2259    0.4341 Cl  0  0  0  0  0  0  0  0  0  0  0  0
   10.2731   -0.7237    2.0189 H   0  0  0  0  0  0  0  0  0  0  0  0
   12.0059   -0.4996    1.7741 H   0  0  0  0  0  0  0  0  0  0  0  0
  -13.0994    0.1245    2.3649 H   0  0  0  0  0  0  0  0  0  0  0  0
  -13.1738   -1.6356    2.4303 H   0  0  0  0  0  0  0  0  0  0  0  0
  -14.4016   -0.7965    0.8798 C   0  0  0  0  0  0  0  0  0  0  0  0
  -14.4180   -1.7389    0.3186 H   0  0  0  0  0  0  0  0  0  0  0  0
  -14.4528    0.3436   -0.1459 C   0  0  0  0  0  0  0  0  0  0  0  0
  -15.5537   -0.7992    1.7303 O   0  0  0  0  0  0  0  0  0  0  0  0
  -16.3438   -0.6925    1.1735 H   0  0  0  0  0  0  0  0  0  0  0  0
   14.2717    0.9027   -0.9250 C   0  0  0  0  0  0  0  0  0  0  0  0
   14.3410    2.0815   -1.9091 C   0  0  0  0  0  0  0  0  0  0  0  0
   14.2398   -0.0292   -1.5039 H   0  0  0  0  0  0  0  0  0  0  0  0
   15.5021    0.8330   -0.0230 C   0  0  0  0  0  0  0  0  0  0  0  0
   15.4638   -0.0719    0.5940 H   0  0  0  0  0  0  0  0  0  0  0  0
   15.5418    1.6763    0.6744 H   0  0  0  0  0  0  0  0  0  0  0  0
   16.4262    0.8119   -0.6086 H   0  0  0  0  0  0  0  0  0  0  0  0
   14.3626    3.6713   -1.1017 Cl  0  0  0  0  0  0  0  0  0  0  0  0
   13.4784    2.0845   -2.5805 H   0  0  0  0  0  0  0  0  0  0  0  0
   15.2443    2.0150   -2.5237 H   0  0  0  0  0  0  0  0  0  0  0  0
  -13.5948    0.3129   -0.8236 H   0  0  0  0  0  0  0  0  0  0  0  0
  -14.4902    1.9588    0.6107 Cl  0  0  0  0  0  0  0  0  0  0  0  0
  -15.3668    0.2678   -0.7430 H   0  0  0  0  0  0  0  0  0  0  0  0
  1  2  1  0  0  0  0
  1  3  1  0  0  0  0
  4  2  1  0  0  0  0
  5  3  1  0  0  0  0
  6  5  1  0  0  0  0
  7  6  1  0  0  0  0
  8  7  1  0  0  0  0
  9  4  1  0  0  0  0
 10  9  1  0  0  0  0
 11 10  1  0  0  0  0
 12 10  1  0  0  0  0
 13 10  1  0  0  0  0
 14  1  1  0  0  0  0
 15  1  1  0  0  0  0
 16  5  1  0  0  0  0
 17  5  1  0  0  0  0
 18  6  1  0  0  0  0
 19  6  1  0  0  0  0
 20  2  1  0  0  0  0
 21  2  1  0  0  0  0
 22  9  1  0  0  0  0
 23  9  1  0  0  0  0
 24 19  1  0  0  0  0
 25 19  1  0  0  0  0
 26 19  1  0  0  0  0
 27 15  1  0  0  0  0
 28 15  1  0  0  0  0
 29 15  1  0  0  0  0
 30 22  1  0  0  0  0
 31 22  1  0  0  0  0
 32 22  1  0  0  0  0
 33  8  1  0  0  0  0
 34  8  1  0  0  0  0
 35  8  1  0  0  0  0
 36 35  1  0  0  0  0
 37 35  1  0  0  0  0
 38 35  1  0  0  0  0
 39 13  1  0  0  0  0
 40 39  1  0  0  0  0
 41 39  1  0  0  0  0
 42 39  1  0  0  0  0
 43 42  1  0  0  0  0
 44 42  1  0  0  0  0
 45 42  1  0  0  0  0
 46 40  1  0  0  0  0
 47 40  1  0  0  0  0
 48 40  1  0  0  0  0
 49 37  1  0  0  0  0
 50 37  1  0  0  0  0
 51 37  1  0  0  0  0
 52 38  1  0  0  0  0
 53 52  1  0  0  0  0
 54 52  1  0  0  0  0
 55 52  1  0  0  0  0
 56 55  1  0  0  0  0
 57 55  1  0  0  0  0
 58 55  1  0  0  0  0
 59 45  1  0  0  0  0
 60 58  1  0  0  0  0
 61 59  1  0  0  0  0
 62 59  1  0  0  0  0
 63 59  1  0  0  0  0
 64 63  1  0  0  0  0
 65 63  1  0  0  0  0
 66 63  1  0  0  0  0
 67 57  1  0  0  0  0
 68 57  1  0  0  0  0
 69 57  1  0  0  0  0
 70 61  1  0  0  0  0
 71 61  1  0  0  0  0
 72 61  1  0  0  0  0
 73 60  1  0  0  0  0
 74 60  1  0  0  0  0
 75 60  1  0  0  0  0
 76 75  1  0  0  0  0
 77 75  1  0  0  0  0
 78 75  1  0  0  0  0
 79 78  1  0  0  0  0
 80 66  1  0  0  0  0
 81 80  1  0  0  0  0
 82 80  1  0  0  0  0
 83 80  1  0  0  0  0
 84 83  1  0  0  0  0
 85 83  1  0  0  0  0
 86 83  1  0  0  0  0
 87 81  1  0  0  0  0
 88 81  1  0  0  0  0
 89 81  1  0  0  0  0
 90 77  1  0  0  0  0
 91 77  1  0  0  0  0
 92 77  1  0  0  0  0
M  END
