file:/home/renata/Renata/MOLFILES/IPB/POLY_IPB17.mol
__Jmol-12_06131310003D 1   1.00000     0.00000     0
Jmol version 12.3.28  2012-05-30 15:29 EXTRACT: ({0:200 209:213})
206205  0  0  0  0              1 V2000
   0.06754  -0.32765  -0.72188 C   0  0  0  0  0  0
   1.07384   0.82140  -0.55123 C   0  0  0  0  0  0
  -1.35237   0.20906  -0.52627 C   0  0  0  0  0  0
   0.17135  -0.70894  -1.77562 H   0  0  0  0  0  0
   0.40716  -1.48157   0.22592 C   0  0  0  0  0  0
   0.13105  -1.18865   1.69019 C   0  0  0  0  0  0
   1.08226   1.16705   0.50396 H   0  0  0  0  0  0
   0.74465   1.71608  -1.12005 H   0  0  0  0  0  0
   2.48332   0.40511  -0.99454 C   0  0  0  0  0  0
   2.51819   0.13721  -2.50253 C   0  0  0  0  0  0
   2.73971  -0.56369  -0.47365 H   0  0  0  0  0  0
   3.49760   1.46207  -0.54986 C   0  0  0  0  0  0
   3.36093   1.68243   0.53120 H   0  0  0  0  0  0
   3.27888   2.43406  -1.04053 H   0  0  0  0  0  0
   4.95144   1.04133  -0.81231 C   0  0  0  0  0  0
   2.48171   1.38619  -3.36527 C   0  0  0  0  0  0
   1.65961  -0.52361  -2.77076 H   0  0  0  0  0  0
   3.41103  -0.47125  -2.76260 H   0  0  0  0  0  0
   3.41869   1.96101  -3.32877 H   0  0  0  0  0  0
   1.67420   2.07742  -3.08674 H   0  0  0  0  0  0
   2.32210   1.13708  -4.42570 H   0  0  0  0  0  0
   5.06389   0.84119  -1.90916 H   0  0  0  0  0  0
   5.28911  -0.25331  -0.06721 C   0  0  0  0  0  0
   5.87922   2.20241  -0.43796 C   0  0  0  0  0  0
   5.74041   2.46512   0.63351 H   0  0  0  0  0  0
   5.55959   3.12488  -0.97017 H   0  0  0  0  0  0
   7.36154   1.92926  -0.71656 C   0  0  0  0  0  0
   4.51655  -1.02198  -0.30570 H   0  0  0  0  0  0
   5.39335  -0.10100   1.44015 C   0  0  0  0  0  0
   6.22907  -0.69106  -0.46675 H   0  0  0  0  0  0
   4.51074   0.37966   1.88440 H   0  0  0  0  0  0
   6.26739   0.48649   1.75617 H   0  0  0  0  0  0
   5.49285  -1.07922   1.93554 H   0  0  0  0  0  0
  -0.94162  -1.12980   1.92466 H   0  0  0  0  0  0
   0.58080  -0.24501   2.02995 H   0  0  0  0  0  0
   0.53964  -1.97711   2.34094 H   0  0  0  0  0  0
   1.48410  -1.74610   0.09933 H   0  0  0  0  0  0
  -0.13031  -2.40378  -0.08215 H   0  0  0  0  0  0
  -1.52787   1.06618  -1.21259 H   0  0  0  0  0  0
  -1.44364   0.66633   0.48320 H   0  0  0  0  0  0
  -2.44928  -0.84356  -0.72103 C   0  0  0  0  0  0
  -2.29061  -1.66087   0.02885 H   0  0  0  0  0  0
  -2.42125  -1.48029  -2.11338 C   0  0  0  0  0  0
  -3.81398  -0.19642  -0.44167 C   0  0  0  0  0  0
  -1.54565  -2.15803  -2.20704 H   0  0  0  0  0  0
  -2.42458  -0.48394  -3.25922 C   0  0  0  0  0  0
  -3.29743  -2.16283  -2.21812 H   0  0  0  0  0  0
  -1.49295   0.09497  -3.33123 H   0  0  0  0  0  0
  -3.24559   0.24332  -3.19232 H   0  0  0  0  0  0
  -2.54079  -0.99023  -4.23000 H   0  0  0  0  0  0
  -3.99326   0.62689  -1.16710 H   0  0  0  0  0  0
  -3.80509   0.32321   0.53982 H   0  0  0  0  0  0
  -4.97005  -1.19834  -0.50011 C   0  0  0  0  0  0
  -4.86886  -2.29404   0.56557 C   0  0  0  0  0  0
  -4.94102  -1.70510  -1.50912 H   0  0  0  0  0  0
  -6.30621  -0.45138  -0.38578 C   0  0  0  0  0  0
  -4.60049  -1.78390   1.97036 C   0  0  0  0  0  0
  -4.08934  -3.03331   0.28108 H   0  0  0  0  0  0
  -5.81285  -2.88952   0.56181 H   0  0  0  0  0  0
  -5.28045  -0.97482   2.27124 H   0  0  0  0  0  0
  -3.57666  -1.40382   2.10085 H   0  0  0  0  0  0
  -4.72262  -2.58309   2.71761 H   0  0  0  0  0  0
   7.64246   1.62493  -2.19079 C   0  0  0  0  0  0
   7.67229   1.03319  -0.11970 H   0  0  0  0  0  0
   8.18691   3.13216  -0.23600 C   0  0  0  0  0  0
   7.93104   3.38156   0.81563 H   0  0  0  0  0  0
   7.88467   4.04292  -0.79730 H   0  0  0  0  0  0
   9.69805   2.91530  -0.37906 C   0  0  0  0  0  0
   7.08842   2.65334  -3.16094 C   0  0  0  0  0  0
   7.25865   0.61564  -2.45312 H   0  0  0  0  0  0
   8.74452   1.53635  -2.33986 H   0  0  0  0  0  0
   7.39402   3.68041  -2.91751 H   0  0  0  0  0  0
   5.99001   2.65227  -3.21154 H   0  0  0  0  0  0
   7.43725   2.46413  -4.18800 H   0  0  0  0  0  0
  -6.32030   0.42890  -1.06218 H   0  0  0  0  0  0
  -6.40839  -0.00904   0.62737 H   0  0  0  0  0  0
  -7.49617  -1.37003  -0.69605 C   0  0  0  0  0  0
  -7.40141  -2.29175  -0.04973 H   0  0  0  0  0  0
  -7.46036  -1.82984  -2.15664 C   0  0  0  0  0  0
  -8.80238  -0.66411  -0.32263 C   0  0  0  0  0  0
  -6.43403  -2.19853  -2.39389 H   0  0  0  0  0  0
  -7.85783  -0.76405  -3.16246 C   0  0  0  0  0  0
  -8.10131  -2.72773  -2.29032 H   0  0  0  0  0  0
  -7.32294   0.18476  -3.01729 H   0  0  0  0  0  0
  -8.93205  -0.53045  -3.13816 H   0  0  0  0  0  0
  -7.64235  -1.08469  -4.19330 H   0  0  0  0  0  0
  -8.93230   0.25128  -0.93782 H   0  0  0  0  0  0
  -8.73441  -0.27062   0.71497 H   0  0  0  0  0  0
 -10.02984  -1.57630  -0.44624 C   0  0  0  0  0  0
  -9.90084  -2.79773   0.46894 C   0  0  0  0  0  0
 -10.09804  -1.95256  -1.50395 H   0  0  0  0  0  0
 -11.29544  -0.75640  -0.17012 C   0  0  0  0  0  0
   9.89991   2.66188  -1.45620 H   0  0  0  0  0  0
  10.21436   1.75138   0.47227 C   0  0  0  0  0  0
  10.42786   4.21981  -0.03277 C   0  0  0  0  0  0
  10.20887   4.50134   1.02013 H   0  0  0  0  0  0
  10.00906   5.06535  -0.61861 H   0  0  0  0  0  0
  11.94452   4.13058  -0.23918 C   0  0  0  0  0  0
 -10.08813  -2.50000   1.94621 C   0  0  0  0  0  0
  -8.90071  -3.26632   0.31131 H   0  0  0  0  0  0
 -10.61514  -3.58859   0.15340 H   0  0  0  0  0  0
 -11.12850  -2.25795   2.20757 H   0  0  0  0  0  0
  -9.46875  -1.66314   2.29741 H   0  0  0  0  0  0
  -9.81548  -3.36691   2.56776 H   0  0  0  0  0  0
   9.91847   0.78280   0.01460 H   0  0  0  0  0  0
   9.77022   1.78766   1.92387 C   0  0  0  0  0  0
  11.32907   1.73467   0.42854 H   0  0  0  0  0  0
   8.70007   1.56844   2.05156 H   0  0  0  0  0  0
   9.95669   2.75739   2.40576 H   0  0  0  0  0  0
  10.30510   1.03669   2.52581 H   0  0  0  0  0  0
  12.33025   3.86749  -1.69780 C   0  0  0  0  0  0
  12.31536   3.26077   0.37045 H   0  0  0  0  0  0
  12.59946   5.41576   0.28340 C   0  0  0  0  0  0
  12.27074   5.62281   1.32387 H   0  0  0  0  0  0
  12.21504   6.28902  -0.28740 H   0  0  0  0  0  0
  14.13042   5.38182   0.20667 C   0  0  0  0  0  0
  11.67104   4.79770  -2.70058 C   0  0  0  0  0  0
  12.11042   2.81168  -1.96621 H   0  0  0  0  0  0
  13.43862   3.94129  -1.80032 H   0  0  0  0  0  0
  11.78479   5.85926  -2.44065 H   0  0  0  0  0  0
  10.59352   4.61119  -2.81541 H   0  0  0  0  0  0
  12.10601   4.67830  -3.70501 H   0  0  0  0  0  0
 -11.28936   0.16305  -0.79507 H   0  0  0  0  0  0
 -11.28009  -0.36184   0.86796 H   0  0  0  0  0  0
 -12.58774  -1.54582  -0.42375 C   0  0  0  0  0  0
 -12.58476  -2.44970   0.24110 H   0  0  0  0  0  0
 -12.65941  -2.03266  -1.87371 C   0  0  0  0  0  0
 -13.78665  -0.67671  -0.02923 C   0  0  0  0  0  0
 -11.71583  -2.57296  -2.12281 H   0  0  0  0  0  0
 -12.88943  -0.93195  -2.89429 C   0  0  0  0  0  0
 -13.44518  -2.81133  -1.97870 H   0  0  0  0  0  0
 -12.16908  -0.10709  -2.80467 H   0  0  0  0  0  0
 -13.89261  -0.48661  -2.83051 H   0  0  0  0  0  0
 -12.79395  -1.31303  -3.92285 H   0  0  0  0  0  0
 -13.79352   0.25785  -0.63092 H   0  0  0  0  0  0
 -13.65199  -0.31034   1.01208 H   0  0  0  0  0  0
 -15.14016  -1.38909  -0.15877 C   0  0  0  0  0  0
 -15.19225  -2.67753   0.66432 C   0  0  0  0  0  0
 -15.28960  -1.66657  -1.23497 H   0  0  0  0  0  0
 -16.24648  -0.40120   0.23099 C   0  0  0  0  0  0
 -15.03568  -2.46679   2.15954 C   0  0  0  0  0  0
 -14.40990  -3.38363   0.30644 H   0  0  0  0  0  0
 -16.13893  -3.22310   0.46006 H   0  0  0  0  0  0
 -15.82104  -1.82891   2.58833 H   0  0  0  0  0  0
 -14.07068  -2.01434   2.42878 H   0  0  0  0  0  0
 -15.08705  -3.42123   2.70630 H   0  0  0  0  0  0
  14.40839   5.16811  -0.86260 H   0  0  0  0  0  0
  14.74334   4.27747   1.07251 C   0  0  0  0  0  0
  14.68303   6.75987   0.59117 C   0  0  0  0  0  0
  14.37694   7.01490   1.62903 H   0  0  0  0  0  0
  14.20434   7.55245  -0.02245 H   0  0  0  0  0  0
  16.20649   6.85123   0.47329 C   0  0  0  0  0  0
  14.57548   3.28526   0.60077 H   0  0  0  0  0  0
  14.24350   4.25311   2.50616 C   0  0  0  0  0  0
  15.85340   4.38599   1.07125 H   0  0  0  0  0  0
  13.19976   3.91785   2.59119 H   0  0  0  0  0  0
  14.30419   5.23334   2.99881 H   0  0  0  0  0  0
  14.83379   3.55983   3.12515 H   0  0  0  0  0  0
  16.71768   6.63664  -0.95388 C   0  0  0  0  0  0
  16.65687   6.04161   1.11373 H   0  0  0  0  0  0
  16.67588   8.19836   1.01548 C   0  0  0  0  0  0
  16.44706   8.31298   2.08562 H   0  0  0  0  0  0
  16.20737   9.05298   0.50761 H   0  0  0  0  0  0
  18.15901   8.37877   0.88210 C   0  0  0  0  0  0
  16.05482   7.52548  -1.99065 C   0  0  0  0  0  0
  16.60086   5.57026  -1.24515 H   0  0  0  0  0  0
  17.81876   6.79398  -0.97701 H   0  0  0  0  0  0
  16.07430   8.58997  -1.71965 H   0  0  0  0  0  0
  15.00268   7.26071  -2.16948 H   0  0  0  0  0  0
  16.55620   7.44670  -2.96764 H   0  0  0  0  0  0
 -16.17647   0.50738  -0.40683 H   0  0  0  0  0  0
 -16.07325  -0.00910   1.25705 H   0  0  0  0  0  0
 -17.65856  -0.97074   0.14967 C   0  0  0  0  0  0
 -17.80379  -1.76331   0.91470 H   0  0  0  0  0  0
 -18.03818  -1.50610  -1.22724 C   0  0  0  0  0  0
 -18.63462   0.09421   0.55365 C   0  0  0  0  0  0
 -17.43617  -2.40083  -1.49047 H   0  0  0  0  0  0
 -17.91655  -0.44860  -2.31123 C   0  0  0  0  0  0
 -19.08192  -1.89016  -1.19367 H   0  0  0  0  0  0
 -16.87155  -0.20672  -2.55310 H   0  0  0  0  0  0
 -18.40549   0.49566  -2.03142 H   0  0  0  0  0  0
 -18.38033  -0.77588  -3.25373 H   0  0  0  0  0  0
  18.44143   8.32126  -0.17948 H   0  0  0  0  0  0
  18.86494   7.29830   1.64647 C   0  0  0  0  0  0
  18.55130   9.71811   1.43194 C   0  0  0  0  0  0
  18.26898   9.77569   2.49354 H   0  0  0  0  0  0
  18.03371  10.51053   0.87143 H   0  0  0  0  0  0
  19.63893   9.85041   1.33413 H   0  0  0  0  0  0
  18.57738   6.31608   1.24328 H   0  0  0  0  0  0
  18.47998   7.37666   3.09412 C   0  0  0  0  0  0
  19.95257   7.43060   1.54865 H   0  0  0  0  0  0
  17.39236   7.24430   3.19204 H   0  0  0  0  0  0
  18.76756   8.35883   3.49741 H   0  0  0  0  0  0
  18.99767   6.58431   3.65465 H   0  0  0  0  0  0
 -18.54053   0.95454  -0.12532 H   0  0  0  0  0  0
 -18.42147   0.41527   1.58395 H   0  0  0  0  0  0
 -20.02976  -0.45165   0.47862 C   0  0  0  0  0  0
 -20.15821  -1.62478   1.40452 C   0  0  0  0  0  0
 -20.24303  -0.77268  -0.55166 H   0  0  0  0  0  0
 -20.74554   0.32931   0.77488 H   0  0  0  0  0  0
 -19.86749  -1.18713   2.80950 C   0  0  0  0  0  0
 -19.51062  -2.45882   1.09626 H   0  0  0  0  0  0
 -21.14665  -2.10058   1.32320 H   0  0  0  0  0  0
 -20.58318  -0.40612   3.10583 H   0  0  0  0  0  0
 -18.84438  -0.78687   2.86464 H   0  0  0  0  0  0
 -19.96169  -2.04743   3.48850 H   0  0  0  0  0  0
  1  4  1  0  0  0
  1  5  1  0  0  0
  2  1  1  0  0  0
  2  7  1  0  0  0
  3  1  1  0  0  0
  3 40  1  0  0  0
  5  6  1  0  0  0
  6 34  1  0  0  0
  6 35  1  0  0  0
  6 36  1  0  0  0
  8  2  1  0  0  0
  9  2  1  0  0  0
  9 12  1  0  0  0
  9 11  1  0  0  0
 10  9  1  0  0  0
 12 13  1  0  0  0
 14 12  1  0  0  0
 15 22  1  0  0  0
 15 12  1  0  0  0
 15 24  1  0  0  0
 15 23  1  0  0  0
 16 20  1  0  0  0
 16 10  1  0  0  0
 17 10  1  0  0  0
 18 10  1  0  0  0
 19 16  1  0  0  0
 21 16  1  0  0  0
 23 29  1  0  0  0
 24 25  1  0  0  0
 26 24  1  0  0  0
 27 24  1  0  0  0
 27 65  1  0  0  0
 27 64  1  0  0  0
 28 23  1  0  0  0
 29 32  1  0  0  0
 29 31  1  0  0  0
 29 33  1  0  0  0
 30 23  1  0  0  0
 37  5  1  0  0  0
 38  5  1  0  0  0
 39  3  1  0  0  0
 41  3  1  0  0  0
 41 44  1  0  0  0
 41 42  1  0  0  0
 43 45  1  0  0  0
 43 41  1  0  0  0
 44 53  1  0  0  0
 44 52  1  0  0  0
 46 43  1  0  0  0
 47 43  1  0  0  0
 48 46  1  0  0  0
 49 46  1  0  0  0
 50 46  1  0  0  0
 51 44  1  0  0  0
 53 55  1  0  0  0
 53 54  1  0  0  0
 54 59  1  0  0  0
 54 57  1  0  0  0
 56 53  1  0  0  0
 56 76  1  0  0  0
 57 60  1  0  0  0
 57 61  1  0  0  0
 57 62  1  0  0  0
 58 54  1  0  0  0
 63 27  1  0  0  0
 65 66  1  0  0  0
 67 65  1  0  0  0
 68 93  1  0  0  0
 68 65  1  0  0  0
 68 95  1  0  0  0
 68 94  1  0  0  0
 69 72  1  0  0  0
 69 63  1  0  0  0
 70 63  1  0  0  0
 71 63  1  0  0  0
 73 69  1  0  0  0
 74 69  1  0  0  0
 75 56  1  0  0  0
 77 80  1  0  0  0
 77 56  1  0  0  0
 77 78  1  0  0  0
 79 83  1  0  0  0
 79 77  1  0  0  0
 80 88  1  0  0  0
 81 79  1  0  0  0
 82 79  1  0  0  0
 84 82  1  0  0  0
 85 82  1  0  0  0
 86 82  1  0  0  0
 87 80  1  0  0  0
 89 91  1  0  0  0
 89 80  1  0  0  0
 89 92  1  0  0  0
 89 90  1  0  0  0
 90 99  1  0  0  0
 92124  1  0  0  0
 94107  1  0  0  0
 94106  1  0  0  0
 95 96  1  0  0  0
 97 95  1  0  0  0
 98 95  1  0  0  0
 98113  1  0  0  0
 98112  1  0  0  0
 99102  1  0  0  0
 99103  1  0  0  0
 99104  1  0  0  0
100 90  1  0  0  0
101 90  1  0  0  0
105 94  1  0  0  0
106108  1  0  0  0
106109  1  0  0  0
106110  1  0  0  0
111 98  1  0  0  0
113116  1  0  0  0
113114  1  0  0  0
115113  1  0  0  0
116147  1  0  0  0
116149  1  0  0  0
116148  1  0  0  0
117120  1  0  0  0
117111  1  0  0  0
118111  1  0  0  0
119111  1  0  0  0
121117  1  0  0  0
122117  1  0  0  0
123 92  1  0  0  0
125128  1  0  0  0
125 92  1  0  0  0
125126  1  0  0  0
127131  1  0  0  0
127125  1  0  0  0
128136  1  0  0  0
129127  1  0  0  0
130127  1  0  0  0
132130  1  0  0  0
133130  1  0  0  0
134130  1  0  0  0
135128  1  0  0  0
137139  1  0  0  0
137128  1  0  0  0
137140  1  0  0  0
137138  1  0  0  0
138141  1  0  0  0
140172  1  0  0  0
141145  1  0  0  0
141144  1  0  0  0
141146  1  0  0  0
142138  1  0  0  0
143138  1  0  0  0
148155  1  0  0  0
148154  1  0  0  0
149150  1  0  0  0
151149  1  0  0  0
152149  1  0  0  0
152161  1  0  0  0
152160  1  0  0  0
153148  1  0  0  0
154156  1  0  0  0
154157  1  0  0  0
154158  1  0  0  0
159167  1  0  0  0
159152  1  0  0  0
161162  1  0  0  0
163161  1  0  0  0
164161  1  0  0  0
165168  1  0  0  0
165159  1  0  0  0
166159  1  0  0  0
169165  1  0  0  0
170165  1  0  0  0
171140  1  0  0  0
173140  1  0  0  0
173176  1  0  0  0
173174  1  0  0  0
175179  1  0  0  0
175173  1  0  0  0
177175  1  0  0  0
178181  1  0  0  0
178175  1  0  0  0
180178  1  0  0  0
182178  1  0  0  0
183164  1  0  0  0
184164  1  0  0  0
185164  1  0  0  0
186185  1  0  0  0
187185  1  0  0  0
188185  1  0  0  0
189184  1  0  0  0
190184  1  0  0  0
191184  1  0  0  0
192190  1  0  0  0
193190  1  0  0  0
194190  1  0  0  0
195176  1  0  0  0
196176  1  0  0  0
197176  1  0  0  0
198197  1  0  0  0
199197  1  0  0  0
200197  1  0  0  0
201198  1  0  0  0
202198  1  0  0  0
203198  1  0  0  0
204201  1  0  0  0
205201  1  0  0  0
206201  1  0  0  0
M  END
