
 OpenBabel10311216253D

149148  0  0  0  0  0  0  0  0999 V2000
    0.7719    0.0386    0.0590 C   0  0  0  0  0  0  0  0  0  0  0  0
    2.0111    0.2731    0.9111 C   0  0  0  0  0  0  0  0  0  0  0  0
    2.9134    0.2217    0.2923 H   0  0  0  0  0  0  0  0  0  0  0  0
    2.1119   -0.5017    1.6792 H   0  0  0  0  0  0  0  0  0  0  0  0
    1.9782    1.2514    1.3998 H   0  0  0  0  0  0  0  0  0  0  0  0
    0.9125   -1.2381   -0.5613 O   0  0  0  0  0  0  0  0  0  0  0  0
    0.7375    0.7999   -0.7284 H   0  0  0  0  0  0  0  0  0  0  0  0
   -0.4965    0.0767    0.9189 C   0  0  0  0  0  0  0  0  0  0  0  0
    0.2938   -1.2546   -1.3122 H   0  0  0  0  0  0  0  0  0  0  0  0
   -0.5399    1.0453    1.4329 H   0  0  0  0  0  0  0  0  0  0  0  0
   -0.4447   -0.7079    1.6842 H   0  0  0  0  0  0  0  0  0  0  0  0
   -1.7787   -0.1213    0.1033 C   0  0  0  0  0  0  0  0  0  0  0  0
   -1.7396   -1.0899   -0.4067 H   0  0  0  0  0  0  0  0  0  0  0  0
   -1.8404    0.8997   -0.8927 O   0  0  0  0  0  0  0  0  0  0  0  0
   -3.0148   -0.0506    1.0115 C   0  0  0  0  0  0  0  0  0  0  0  0
   -3.0657    0.9346    1.4918 H   0  0  0  0  0  0  0  0  0  0  0  0
   -2.9108   -0.8050    1.8016 H   0  0  0  0  0  0  0  0  0  0  0  0
   -4.3224   -0.2923    0.2508 C   0  0  0  0  0  0  0  0  0  0  0  0
   -4.2299   -1.5558   -0.4079 O   0  0  0  0  0  0  0  0  0  0  0  0
   -4.4415    0.4797   -0.5169 H   0  0  0  0  0  0  0  0  0  0  0  0
   -5.5249   -0.2762    1.2042 C   0  0  0  0  0  0  0  0  0  0  0  0
   -2.5352    0.6402   -1.5234 H   0  0  0  0  0  0  0  0  0  0  0  0
   -4.9733   -1.6111   -1.0337 H   0  0  0  0  0  0  0  0  0  0  0  0
   -5.5284    0.6758    1.7498 H   0  0  0  0  0  0  0  0  0  0  0  0
   -5.4288   -1.0863    1.9376 H   0  0  0  0  0  0  0  0  0  0  0  0
   -6.8533   -0.4391    0.4600 C   0  0  0  0  0  0  0  0  0  0  0  0
   -6.8529   -1.3960   -0.0722 H   0  0  0  0  0  0  0  0  0  0  0  0
   -6.9485    0.6034   -0.5121 O   0  0  0  0  0  0  0  0  0  0  0  0
   -8.0445   -0.3757    1.4236 C   0  0  0  0  0  0  0  0  0  0  0  0
   -8.0956    0.6165    1.8883 H   0  0  0  0  0  0  0  0  0  0  0  0
   -7.8976   -1.1174    2.2185 H   0  0  0  0  0  0  0  0  0  0  0  0
   -9.3661   -0.6584    0.7045 C   0  0  0  0  0  0  0  0  0  0  0  0
   -9.2734   -1.9503    0.1007 O   0  0  0  0  0  0  0  0  0  0  0  0
   -9.5057    0.0763   -0.0950 H   0  0  0  0  0  0  0  0  0  0  0  0
  -10.5534   -0.6116    1.6716 C   0  0  0  0  0  0  0  0  0  0  0  0
   -7.6888    0.3837   -1.1043 H   0  0  0  0  0  0  0  0  0  0  0  0
  -10.0245   -2.0434   -0.5110 H   0  0  0  0  0  0  0  0  0  0  0  0
  -10.5365    0.3437    2.2108 H   0  0  0  0  0  0  0  0  0  0  0  0
  -10.4684   -1.4211    2.4067 H   0  0  0  0  0  0  0  0  0  0  0  0
  -11.8825   -0.7488    0.9253 C   0  0  0  0  0  0  0  0  0  0  0  0
  -11.8887   -1.6917    0.3692 H   0  0  0  0  0  0  0  0  0  0  0  0
  -11.9698    0.3183   -0.0216 O   0  0  0  0  0  0  0  0  0  0  0  0
  -13.0733   -0.6995    1.8860 C   0  0  0  0  0  0  0  0  0  0  0  0
  -13.1353    0.2907    2.3534 H   0  0  0  0  0  0  0  0  0  0  0  0
  -12.9244   -1.4440    2.6780 H   0  0  0  0  0  0  0  0  0  0  0  0
  -14.3841   -0.9937    1.1541 C   0  0  0  0  0  0  0  0  0  0  0  0
  -14.2799   -2.2918    0.5646 O   0  0  0  0  0  0  0  0  0  0  0  0
  -14.5178   -0.2682    0.3453 H   0  0  0  0  0  0  0  0  0  0  0  0
  -15.5790   -0.9424    2.1078 C   0  0  0  0  0  0  0  0  0  0  0  0
  -12.7084    0.1187   -0.6228 H   0  0  0  0  0  0  0  0  0  0  0  0
  -15.0241   -2.3956   -0.0533 H   0  0  0  0  0  0  0  0  0  0  0  0
  -15.5647    0.0126    2.6477 H   0  0  0  0  0  0  0  0  0  0  0  0
  -15.5052   -1.7531    2.8428 H   0  0  0  0  0  0  0  0  0  0  0  0
  -16.8976   -1.0724    1.3444 C   0  0  0  0  0  0  0  0  0  0  0  0
  -16.8994   -2.0105    0.7804 H   0  0  0  0  0  0  0  0  0  0  0  0
  -16.9737    0.0029    0.4056 O   0  0  0  0  0  0  0  0  0  0  0  0
  -18.0941   -1.0275    2.2953 C   0  0  0  0  0  0  0  0  0  0  0  0
  -18.1637   -0.0370    2.7610 H   0  0  0  0  0  0  0  0  0  0  0  0
  -17.9481   -1.7705    3.0893 H   0  0  0  0  0  0  0  0  0  0  0  0
  -19.3964   -1.3292    1.5542 C   0  0  0  0  0  0  0  0  0  0  0  0
  -19.2846   -2.6309    0.9738 O   0  0  0  0  0  0  0  0  0  0  0  0
  -19.5268   -0.6093    0.7400 H   0  0  0  0  0  0  0  0  0  0  0  0
  -20.5938   -1.2759    2.5029 C   0  0  0  0  0  0  0  0  0  0  0  0
  -17.7101   -0.1866   -0.2010 H   0  0  0  0  0  0  0  0  0  0  0  0
  -20.0271   -2.7436    0.3561 H   0  0  0  0  0  0  0  0  0  0  0  0
  -20.5792   -0.3215    3.0440 H   0  0  0  0  0  0  0  0  0  0  0  0
  -20.5241   -2.0876    3.2372 H   0  0  0  0  0  0  0  0  0  0  0  0
  -21.9089   -1.4010    1.7350 C   0  0  0  0  0  0  0  0  0  0  0  0
  -21.9106   -2.3360    1.1658 H   0  0  0  0  0  0  0  0  0  0  0  0
  -21.9818   -0.3203    0.8020 O   0  0  0  0  0  0  0  0  0  0  0  0
  -23.1044   -1.3583    2.6862 C   0  0  0  0  0  0  0  0  0  0  0  0
  -23.1751   -0.3678    3.1519 H   0  0  0  0  0  0  0  0  0  0  0  0
  -22.9565   -2.1010    3.4803 H   0  0  0  0  0  0  0  0  0  0  0  0
  -24.4059   -1.6629    1.9464 C   0  0  0  0  0  0  0  0  0  0  0  0
  -24.2930   -2.9661    1.3697 O   0  0  0  0  0  0  0  0  0  0  0  0
  -24.5372   -0.9453    1.1303 H   0  0  0  0  0  0  0  0  0  0  0  0
  -25.6012   -1.6084    2.8975 C   0  0  0  0  0  0  0  0  0  0  0  0
  -22.7189   -0.5033    0.1951 H   0  0  0  0  0  0  0  0  0  0  0  0
  -25.0350   -3.0811    0.7523 H   0  0  0  0  0  0  0  0  0  0  0  0
  -25.5853   -0.6532    3.4372 H   0  0  0  0  0  0  0  0  0  0  0  0
  -25.5297   -2.4190    3.6328 H   0  0  0  0  0  0  0  0  0  0  0  0
  -26.9176   -1.7343    2.1327 C   0  0  0  0  0  0  0  0  0  0  0  0
  -26.9201   -2.6700    1.5647 H   0  0  0  0  0  0  0  0  0  0  0  0
  -26.9918   -0.6547    1.1985 O   0  0  0  0  0  0  0  0  0  0  0  0
  -28.1115   -1.6903    3.0865 C   0  0  0  0  0  0  0  0  0  0  0  0
  -28.1788   -0.7006    3.5542 H   0  0  0  0  0  0  0  0  0  0  0  0
  -27.9634   -2.4348    3.8787 H   0  0  0  0  0  0  0  0  0  0  0  0
  -29.4155   -1.9901    2.3486 C   0  0  0  0  0  0  0  0  0  0  0  0
  -29.3046   -3.2904    1.7650 O   0  0  0  0  0  0  0  0  0  0  0  0
  -29.5468   -1.2681    1.5363 H   0  0  0  0  0  0  0  0  0  0  0  0
  -30.6109   -1.9386    3.3010 C   0  0  0  0  0  0  0  0  0  0  0  0
  -27.7270   -0.8410    0.5902 H   0  0  0  0  0  0  0  0  0  0  0  0
  -30.0437   -3.3978    1.1425 H   0  0  0  0  0  0  0  0  0  0  0  0
  -30.5975   -0.9823    3.8387 H   0  0  0  0  0  0  0  0  0  0  0  0
  -30.5357   -2.7474    4.0380 H   0  0  0  0  0  0  0  0  0  0  0  0
  -31.9282   -2.0718    2.5376 C   0  0  0  0  0  0  0  0  0  0  0  0
  -31.9281   -3.0121    1.9771 H   0  0  0  0  0  0  0  0  0  0  0  0
  -32.0025   -0.9999    1.5946 O   0  0  0  0  0  0  0  0  0  0  0  0
  -33.1263   -2.0234    3.4879 C   0  0  0  0  0  0  0  0  0  0  0  0
  -33.1900   -1.0344    3.9576 H   0  0  0  0  0  0  0  0  0  0  0  0
  -32.9837   -2.7701    4.2790 H   0  0  0  0  0  0  0  0  0  0  0  0
  -34.4306   -2.3144    2.7446 C   0  0  0  0  0  0  0  0  0  0  0  0
  -34.3205   -3.6099    2.1507 O   0  0  0  0  0  0  0  0  0  0  0  0
  -34.5560   -1.5853    1.9376 H   0  0  0  0  0  0  0  0  0  0  0  0
  -35.6340   -2.2663    3.6891 C   0  0  0  0  0  0  0  0  0  0  0  0
  -32.7306   -1.1980    0.9810 H   0  0  0  0  0  0  0  0  0  0  0  0
  -35.0524   -3.7052    1.5170 H   0  0  0  0  0  0  0  0  0  0  0  0
  -35.6287   -1.3076    4.2226 H   0  0  0  0  0  0  0  0  0  0  0  0
  -35.5588   -3.0710    4.4306 H   0  0  0  0  0  0  0  0  0  0  0  0
  -36.9477   -2.4121    2.9182 C   0  0  0  0  0  0  0  0  0  0  0  0
  -36.9410   -3.3612    2.3726 H   0  0  0  0  0  0  0  0  0  0  0  0
  -37.0161   -1.3555    1.9581 O   0  0  0  0  0  0  0  0  0  0  0  0
  -38.1578   -2.3537    3.8547 C   0  0  0  0  0  0  0  0  0  0  0  0
  -38.2160   -1.3661    4.3281 H   0  0  0  0  0  0  0  0  0  0  0  0
  -38.0300   -3.1042    4.6448 H   0  0  0  0  0  0  0  0  0  0  0  0
  -39.4613   -2.6266    3.0987 C   0  0  0  0  0  0  0  0  0  0  0  0
  -39.3533   -3.9100    2.4798 O   0  0  0  0  0  0  0  0  0  0  0  0
  -39.5803   -1.8807    2.3061 H   0  0  0  0  0  0  0  0  0  0  0  0
  -40.6725   -2.5912    4.0356 C   0  0  0  0  0  0  0  0  0  0  0  0
  -37.7337   -1.5709    1.3373 H   0  0  0  0  0  0  0  0  0  0  0  0
  -40.0802   -3.9847    1.8369 H   0  0  0  0  0  0  0  0  0  0  0  0
  -40.6829   -1.6276    4.5602 H   0  0  0  0  0  0  0  0  0  0  0  0
  -40.5859   -3.3860    4.7866 H   0  0  0  0  0  0  0  0  0  0  0  0
  -41.9874   -2.7693    3.2684 C   0  0  0  0  0  0  0  0  0  0  0  0
  -41.9747   -3.7363    2.7546 H   0  0  0  0  0  0  0  0  0  0  0  0
  -42.0668   -1.7462    2.2751 O   0  0  0  0  0  0  0  0  0  0  0  0
  -43.1966   -2.6930    4.2061 C   0  0  0  0  0  0  0  0  0  0  0  0
  -43.2325   -1.7087    4.6891 H   0  0  0  0  0  0  0  0  0  0  0  0
  -43.0749   -3.4495    4.9915 H   0  0  0  0  0  0  0  0  0  0  0  0
  -44.5200   -2.9315    3.4678 C   0  0  0  0  0  0  0  0  0  0  0  0
  -44.4334   -4.1798    2.7811 O   0  0  0  0  0  0  0  0  0  0  0  0
  -44.6619   -2.1448    2.7188 H   0  0  0  0  0  0  0  0  0  0  0  0
  -45.7015   -2.9409    4.4444 C   0  0  0  0  0  0  0  0  0  0  0  0
  -42.7876   -1.9906    1.6680 H   0  0  0  0  0  0  0  0  0  0  0  0
  -45.1831   -4.2161    2.1604 H   0  0  0  0  0  0  0  0  0  0  0  0
  -45.7272   -1.9732    4.9613 H   0  0  0  0  0  0  0  0  0  0  0  0
  -45.5508   -3.7201    5.2020 H   0  0  0  0  0  0  0  0  0  0  0  0
  -47.0475   -3.1882    3.7510 C   0  0  0  0  0  0  0  0  0  0  0  0
  -47.0402   -4.1850    3.2957 H   0  0  0  0  0  0  0  0  0  0  0  0
  -47.2087   -2.2324    2.7047 O   0  0  0  0  0  0  0  0  0  0  0  0
  -48.2042   -3.0855    4.7506 C   0  0  0  0  0  0  0  0  0  0  0  0
  -48.1719   -2.1209    5.2712 H   0  0  0  0  0  0  0  0  0  0  0  0
  -48.0773   -3.8715    5.5052 H   0  0  0  0  0  0  0  0  0  0  0  0
  -49.5797   -3.2304    4.1099 C   0  0  0  0  0  0  0  0  0  0  0  0
  -49.6160   -4.3844    3.2825 O   0  0  0  0  0  0  0  0  0  0  0  0
  -49.8204   -2.3572    3.4954 H   0  0  0  0  0  0  0  0  0  0  0  0
  -50.3452   -3.3271    4.8862 H   0  0  0  0  0  0  0  0  0  0  0  0
  -47.9501   -2.5481    2.1554 H   0  0  0  0  0  0  0  0  0  0  0  0
  -50.5442   -4.5202    3.0213 H   0  0  0  0  0  0  0  0  0  0  0  0
  1  2  1  0  0  0  0
  3  2  1  0  0  0  0
  4  2  1  0  0  0  0
  5  2  1  0  0  0  0
  6  1  1  0  0  0  0
  7  1  1  0  0  0  0
  8  1  1  0  0  0  0
  9  6  1  0  0  0  0
 10  8  1  0  0  0  0
 11  8  1  0  0  0  0
 12  8  1  0  0  0  0
 13 12  1  0  0  0  0
 14 12  1  0  0  0  0
 15 12  1  0  0  0  0
 16 15  1  0  0  0  0
 17 15  1  0  0  0  0
 18 15  1  0  0  0  0
 19 18  1  0  0  0  0
 20 18  1  0  0  0  0
 21 18  1  0  0  0  0
 22 14  1  0  0  0  0
 23 19  1  0  0  0  0
 24 21  1  0  0  0  0
 25 21  1  0  0  0  0
 26 21  1  0  0  0  0
 27 26  1  0  0  0  0
 28 26  1  0  0  0  0
 29 26  1  0  0  0  0
 30 29  1  0  0  0  0
 31 29  1  0  0  0  0
 32 29  1  0  0  0  0
 33 32  1  0  0  0  0
 34 32  1  0  0  0  0
 35 32  1  0  0  0  0
 36 28  1  0  0  0  0
 37 33  1  0  0  0  0
 38 35  1  0  0  0  0
 39 35  1  0  0  0  0
 40 35  1  0  0  0  0
 41 40  1  0  0  0  0
 42 40  1  0  0  0  0
 43 40  1  0  0  0  0
 44 43  1  0  0  0  0
 45 43  1  0  0  0  0
 46 43  1  0  0  0  0
 47 46  1  0  0  0  0
 48 46  1  0  0  0  0
 49 46  1  0  0  0  0
 50 42  1  0  0  0  0
 51 47  1  0  0  0  0
 52 49  1  0  0  0  0
 53 49  1  0  0  0  0
 54 49  1  0  0  0  0
 55 54  1  0  0  0  0
 56 54  1  0  0  0  0
 57 54  1  0  0  0  0
 58 57  1  0  0  0  0
 59 57  1  0  0  0  0
 60 57  1  0  0  0  0
 61 60  1  0  0  0  0
 62 60  1  0  0  0  0
 63 60  1  0  0  0  0
 64 56  1  0  0  0  0
 65 61  1  0  0  0  0
 66 63  1  0  0  0  0
 67 63  1  0  0  0  0
 68 63  1  0  0  0  0
 69 68  1  0  0  0  0
 70 68  1  0  0  0  0
 71 68  1  0  0  0  0
 72 71  1  0  0  0  0
 73 71  1  0  0  0  0
 74 71  1  0  0  0  0
 75 74  1  0  0  0  0
 76 74  1  0  0  0  0
 77 74  1  0  0  0  0
 78 70  1  0  0  0  0
 79 75  1  0  0  0  0
 80 77  1  0  0  0  0
 81 77  1  0  0  0  0
 82 77  1  0  0  0  0
 83 82  1  0  0  0  0
 84 82  1  0  0  0  0
 85 82  1  0  0  0  0
 86 85  1  0  0  0  0
 87 85  1  0  0  0  0
 88 85  1  0  0  0  0
 89 88  1  0  0  0  0
 90 88  1  0  0  0  0
 91 88  1  0  0  0  0
 92 84  1  0  0  0  0
 93 89  1  0  0  0  0
 94 91  1  0  0  0  0
 95 91  1  0  0  0  0
 96 91  1  0  0  0  0
 97 96  1  0  0  0  0
 98 96  1  0  0  0  0
 99 96  1  0  0  0  0
100 99  1  0  0  0  0
101 99  1  0  0  0  0
102 99  1  0  0  0  0
103102  1  0  0  0  0
104102  1  0  0  0  0
105102  1  0  0  0  0
106 98  1  0  0  0  0
107103  1  0  0  0  0
108105  1  0  0  0  0
109105  1  0  0  0  0
110105  1  0  0  0  0
111110  1  0  0  0  0
112110  1  0  0  0  0
113110  1  0  0  0  0
114113  1  0  0  0  0
115113  1  0  0  0  0
116113  1  0  0  0  0
117116  1  0  0  0  0
118116  1  0  0  0  0
119116  1  0  0  0  0
120112  1  0  0  0  0
121117  1  0  0  0  0
122119  1  0  0  0  0
123119  1  0  0  0  0
124119  1  0  0  0  0
125124  1  0  0  0  0
126124  1  0  0  0  0
127124  1  0  0  0  0
128127  1  0  0  0  0
129127  1  0  0  0  0
130127  1  0  0  0  0
131130  1  0  0  0  0
132130  1  0  0  0  0
133130  1  0  0  0  0
134126  1  0  0  0  0
135131  1  0  0  0  0
136133  1  0  0  0  0
137133  1  0  0  0  0
138133  1  0  0  0  0
139138  1  0  0  0  0
140138  1  0  0  0  0
141138  1  0  0  0  0
142141  1  0  0  0  0
143141  1  0  0  0  0
144141  1  0  0  0  0
145144  1  0  0  0  0
146144  1  0  0  0  0
147144  1  0  0  0  0
148140  1  0  0  0  0
149145  1  0  0  0  0
M  END
