file:/home/ljacques/MeusArquivos/MOL/Add/SPP/POLY_SPP11.mol
__Jmol-12_07131213573D 1   1.00000     0.00000     0
Jmol version 12.3.28  2012-05-30 15:29 EXTRACT: ({0:136})
137136  0  0  0  0              1 V2000
  -0.60165   0.21923   0.40239 C   0  0  0  0  0  0
   0.85809   0.22238   0.87371 C   0  0  0  0  0  0
  -1.08428  -1.13351  -0.09792 C   0  0  0  0  0  0
  -1.23363   0.52229   1.24614 H   0  0  0  0  0  0
  -0.75463   0.97360  -0.37704 H   0  0  0  0  0  0
   1.90919  -0.22510  -0.16796 C   0  0  0  0  0  0
   0.93281  -0.43102   1.75293 H   0  0  0  0  0  0
   1.10142   1.23443   1.22189 H   0  0  0  0  0  0
  -0.91591  -1.91345   0.65119 H   0  0  0  0  0  0
  -0.57695  -1.42447  -1.02252 H   0  0  0  0  0  0
  -2.15757  -1.09407  -0.31082 H   0  0  0  0  0  0
   1.87043   0.65998  -1.41797 C   0  0  0  0  0  0
   1.66823  -1.25079  -0.46423 H   0  0  0  0  0  0
   3.31414  -0.22097   0.49084 C   0  0  0  0  0  0
   3.27312  -0.80905   1.41772 H   0  0  0  0  0  0
   3.55224   0.80831   0.79060 H   0  0  0  0  0  0
   4.47038  -0.76399  -0.38490 C   0  0  0  0  0  0
   2.11630   1.69875  -1.17393 H   0  0  0  0  0  0
   0.88320   0.64662  -1.88903 H   0  0  0  0  0  0
   2.57541   0.31221  -2.17827 H   0  0  0  0  0  0
   4.50221  -0.17727  -1.30616 H   0  0  0  0  0  0
   4.23550  -2.23278  -0.75905 C   0  0  0  0  0  0
   5.82518  -0.58895   0.35431 C   0  0  0  0  0  0
   5.86211  -1.30848   1.18286 H   0  0  0  0  0  0
   5.86821   0.40851   0.81050 H   0  0  0  0  0  0
   7.07478  -0.77117  -0.54559 C   0  0  0  0  0  0
   3.32898  -2.35170  -1.35940 H   0  0  0  0  0  0
   4.13387  -2.85553   0.13649 H   0  0  0  0  0  0
   5.05536  -2.63718  -1.35819 H   0  0  0  0  0  0
   7.20045   0.39261  -1.54057 C   0  0  0  0  0  0
   6.95609  -1.69164  -1.12086 H   0  0  0  0  0  0
   8.36174  -0.89127   0.31556 C   0  0  0  0  0  0
   8.16625  -1.52169   1.19252 H   0  0  0  0  0  0
   8.61622   0.10427   0.70111 H   0  0  0  0  0  0
   9.57103  -1.48230  -0.45630 C   0  0  0  0  0  0
   9.61837  -1.01018  -1.44013 H   0  0  0  0  0  0
   9.38441  -2.99259  -0.67247 C   0  0  0  0  0  0
  10.90465  -1.20359   0.28815 C   0  0  0  0  0  0
  10.97064  -1.87892   1.15077 H   0  0  0  0  0  0
  10.90143  -0.18371   0.69314 H   0  0  0  0  0  0
  12.15578  -1.37358  -0.61345 C   0  0  0  0  0  0
   7.27666   1.35172  -1.01706 H   0  0  0  0  0  0
   6.33892   0.44306  -2.21195 H   0  0  0  0  0  0
   8.08277   0.28887  -2.17795 H   0  0  0  0  0  0
   8.46861  -3.21168  -1.22818 H   0  0  0  0  0  0
   9.33080  -3.52338   0.28431 H   0  0  0  0  0  0
  10.20848  -3.42310  -1.24789 H   0  0  0  0  0  0
  12.28165  -0.18839  -1.58497 C   0  0  0  0  0  0
  12.03353  -2.27973  -1.21165 H   0  0  0  0  0  0
  13.45145  -1.51384   0.22967 C   0  0  0  0  0  0
  13.25643  -2.11822   1.12452 H   0  0  0  0  0  0
  13.74707  -0.51919   0.58632 H   0  0  0  0  0  0
  14.61476  -2.16451  -0.56582 C   0  0  0  0  0  0
  14.60113  -1.76950  -1.58434 H   0  0  0  0  0  0
  14.40995  -3.68552  -0.65644 C   0  0  0  0  0  0
  15.99184  -1.84082   0.07018 C   0  0  0  0  0  0
  16.11423  -2.45529   0.97113 H   0  0  0  0  0  0
  16.01433  -0.79555   0.40351 H   0  0  0  0  0  0
  17.18351  -2.07581  -0.89764 C   0  0  0  0  0  0
  12.38153   0.75727  -1.04116 H   0  0  0  0  0  0
  11.40864  -0.10813  -2.23853 H   0  0  0  0  0  0
  13.15369  -0.29112  -2.23697 H   0  0  0  0  0  0
  13.45294  -3.93611  -1.12297 H   0  0  0  0  0  0
  14.42708  -4.14512   0.33788 H   0  0  0  0  0  0
  15.18845  -4.16228  -1.25843 H   0  0  0  0  0  0
  17.24422  -0.96043  -1.95294 C   0  0  0  0  0  0
  17.02071  -3.01980  -1.42152 H   0  0  0  0  0  0
  18.52265  -2.16632  -0.12088 C   0  0  0  0  0  0
  18.38630  -2.77784   0.78037 H   0  0  0  0  0  0
  18.79276  -1.16045   0.22648 H   0  0  0  0  0  0
  19.69560  -2.76619  -0.94482 C   0  0  0  0  0  0
  19.71827  -2.27433  -1.92023 H   0  0  0  0  0  0
  19.49129  -4.27014  -1.17121 C   0  0  0  0  0  0
  21.04411  -2.49414  -0.23167 C   0  0  0  0  0  0
  21.03526  -3.01012   0.73768 H   0  0  0  0  0  0
  21.11758  -1.42144  -0.00780 H   0  0  0  0  0  0
  22.31458  -2.91717  -1.01776 C   0  0  0  0  0  0
  17.37853   0.01977  -1.48280 H   0  0  0  0  0  0
  16.32937  -0.92186  -2.55096 H   0  0  0  0  0  0
  18.06845  -1.11104  -2.65516 H   0  0  0  0  0  0
  18.53067  -4.48637  -1.64530 H   0  0  0  0  0  0
  19.52951  -4.81903  -0.22408 H   0  0  0  0  0  0
  20.25817  -4.68213  -1.83337 H   0  0  0  0  0  0
  22.46280  -2.11140  -2.31231 C   0  0  0  0  0  0
  22.22442  -3.97604  -1.27904 H   0  0  0  0  0  0
  23.55603  -2.76835  -0.10559 C   0  0  0  0  0  0
  23.39498  -3.37541   0.79570 H   0  0  0  0  0  0
  23.62268  -1.72661   0.23612 H   0  0  0  0  0  0
  24.91331  -3.16535  -0.72706 C   0  0  0  0  0  0
  25.15454  -2.46553  -1.53582 H   0  0  0  0  0  0
  24.91532  -4.58270  -1.30202 C   0  0  0  0  0  0
  26.02081  -3.03810   0.32380 C   0  0  0  0  0  0
  25.86356  -3.73587   1.15353 H   0  0  0  0  0  0
  26.05555  -2.02347   0.73390 H   0  0  0  0  0  0
  27.36229  -3.33272  -0.27921 C   0  0  0  0  0  0
  22.54466  -1.03973  -2.10315 H   0  0  0  0  0  0
  21.60973  -2.26458  -2.97925 H   0  0  0  0  0  0
  23.34888  -2.41473  -2.87729 H   0  0  0  0  0  0
  24.23172  -4.67133  -2.15173 H   0  0  0  0  0  0
  24.61959  -5.31838  -0.54680 H   0  0  0  0  0  0
  25.91324  -4.85283  -1.66470 H   0  0  0  0  0  0
  27.63529  -2.36230  -1.38995 C   0  0  0  0  0  0
  27.36783  -4.35776  -0.67830 H   0  0  0  0  0  0
  28.42342  -3.20003   0.77265 C   0  0  0  0  0  0
  28.22334  -3.91169   1.58722 H   0  0  0  0  0  0
  28.41800  -2.17501   1.17176 H   0  0  0  0  0  0
  29.76490  -3.49466   0.16964 C   0  0  0  0  0  0
  29.96510  -2.78301  -0.64490 H   0  0  0  0  0  0
  29.77244  -4.89244  -0.37457 C   0  0  0  0  0  0
  30.82602  -3.36197   1.22151 C   0  0  0  0  0  0
  30.62595  -4.07363   2.03607 H   0  0  0  0  0  0
  30.82061  -2.33695   1.62062 H   0  0  0  0  0  0
  32.16751  -3.65660   0.61849 C   0  0  0  0  0  0
  27.62984  -1.33723  -0.99095 H   0  0  0  0  0  0
  26.85721  -2.45957  -2.16141 H   0  0  0  0  0  0
  28.61905  -2.57835  -1.83216 H   0  0  0  0  0  0
  28.99436  -4.98982  -1.14600 H   0  0  0  0  0  0
  29.57231  -5.60416   0.43992 H   0  0  0  0  0  0
  30.75620  -5.10849  -0.81678 H   0  0  0  0  0  0
  32.44051  -2.68617  -0.49225 C   0  0  0  0  0  0
  32.17303  -4.68163   0.21941 H   0  0  0  0  0  0
  33.22863  -3.52391   1.67036 C   0  0  0  0  0  0
  33.02855  -4.23556   2.48493 H   0  0  0  0  0  0
  33.22322  -2.49888   2.06947 H   0  0  0  0  0  0
  34.57012  -3.81854   1.06735 C   0  0  0  0  0  0
  34.77032  -3.10689   0.25280 H   0  0  0  0  0  0
  34.57766  -5.21631   0.52314 C   0  0  0  0  0  0
  35.63124  -3.68585   2.11921 C   0  0  0  0  0  0
  35.43115  -4.39750   2.93378 H   0  0  0  0  0  0
  35.62582  -2.66082   2.51832 H   0  0  0  0  0  0
  36.61499  -3.90191   1.67701 H   0  0  0  0  0  0
  32.43505  -1.66110  -0.09324 H   0  0  0  0  0  0
  31.66243  -2.78344  -1.26370 H   0  0  0  0  0  0
  33.42426  -2.90223  -0.93446 H   0  0  0  0  0  0
  33.79957  -5.31370  -0.24829 H   0  0  0  0  0  0
  34.37753  -5.92804   1.33762 H   0  0  0  0  0  0
  35.56141  -5.43237   0.08093 H   0  0  0  0  0  0
  1  2  1  0  0  0
  1  3  1  0  0  0
  1  4  1  0  0  0
  1  5  1  0  0  0
  6  2  1  0  0  0
  7  2  1  0  0  0
  8  2  1  0  0  0
  9  3  1  0  0  0
 10  3  1  0  0  0
 11  3  1  0  0  0
 12  6  1  0  0  0
 13  6  1  0  0  0
 14  6  1  0  0  0
 15 14  1  0  0  0
 16 14  1  0  0  0
 17 14  1  0  0  0
 18 12  1  0  0  0
 19 12  1  0  0  0
 20 12  1  0  0  0
 21 17  1  0  0  0
 22 17  1  0  0  0
 23 17  1  0  0  0
 24 23  1  0  0  0
 25 23  1  0  0  0
 26 23  1  0  0  0
 27 22  1  0  0  0
 28 22  1  0  0  0
 29 22  1  0  0  0
 30 26  1  0  0  0
 31 26  1  0  0  0
 32 26  1  0  0  0
 33 32  1  0  0  0
 34 32  1  0  0  0
 35 32  1  0  0  0
 36 35  1  0  0  0
 37 35  1  0  0  0
 38 35  1  0  0  0
 39 38  1  0  0  0
 40 38  1  0  0  0
 41 38  1  0  0  0
 42 30  1  0  0  0
 43 30  1  0  0  0
 44 30  1  0  0  0
 45 37  1  0  0  0
 46 37  1  0  0  0
 47 37  1  0  0  0
 48 41  1  0  0  0
 49 41  1  0  0  0
 50 41  1  0  0  0
 51 50  1  0  0  0
 52 50  1  0  0  0
 53 50  1  0  0  0
 54 53  1  0  0  0
 55 53  1  0  0  0
 56 53  1  0  0  0
 57 56  1  0  0  0
 58 56  1  0  0  0
 59 56  1  0  0  0
 60 48  1  0  0  0
 61 48  1  0  0  0
 62 48  1  0  0  0
 63 55  1  0  0  0
 64 55  1  0  0  0
 65 55  1  0  0  0
 66 59  1  0  0  0
 67 59  1  0  0  0
 68 59  1  0  0  0
 69 68  1  0  0  0
 70 68  1  0  0  0
 71 68  1  0  0  0
 72 71  1  0  0  0
 73 71  1  0  0  0
 74 71  1  0  0  0
 75 74  1  0  0  0
 76 74  1  0  0  0
 77 74  1  0  0  0
 78 66  1  0  0  0
 79 66  1  0  0  0
 80 66  1  0  0  0
 81 73  1  0  0  0
 82 73  1  0  0  0
 83 73  1  0  0  0
 84 77  1  0  0  0
 85 77  1  0  0  0
 86 77  1  0  0  0
 87 86  1  0  0  0
 88 86  1  0  0  0
 89 86  1  0  0  0
 90 89  1  0  0  0
 91 89  1  0  0  0
 92 89  1  0  0  0
 93 92  1  0  0  0
 94 92  1  0  0  0
 95 92  1  0  0  0
 96 84  1  0  0  0
 97 84  1  0  0  0
 98 84  1  0  0  0
 99 91  1  0  0  0
100 91  1  0  0  0
101 91  1  0  0  0
102 95  1  0  0  0
103 95  1  0  0  0
104 95  1  0  0  0
105104  1  0  0  0
106104  1  0  0  0
107104  1  0  0  0
108107  1  0  0  0
109107  1  0  0  0
110107  1  0  0  0
111110  1  0  0  0
112110  1  0  0  0
113110  1  0  0  0
114102  1  0  0  0
115102  1  0  0  0
116102  1  0  0  0
117109  1  0  0  0
118109  1  0  0  0
119109  1  0  0  0
120113  1  0  0  0
121113  1  0  0  0
122113  1  0  0  0
123122  1  0  0  0
124122  1  0  0  0
125122  1  0  0  0
126125  1  0  0  0
127125  1  0  0  0
128125  1  0  0  0
129128  1  0  0  0
130128  1  0  0  0
131128  1  0  0  0
132120  1  0  0  0
133120  1  0  0  0
134120  1  0  0  0
135127  1  0  0  0
136127  1  0  0  0
137127  1  0  0  0
M  END
