
 OpenBabel07061214303D

211221  0  0  0  0  0  0  0  0999 V2000
    8.8521    1.1088    5.3237 C   0  0  0  0  0  0  0  0  0  0  0  0
    8.0658    1.1035    3.9479 C   0  0  0  0  0  0  0  0  0  0  0  0
    7.1446   -0.1333    3.6096 C   0  0  0  0  0  0  0  0  0  0  0  0
    6.0439    0.2047    2.5164 C   0  0  0  0  0  0  0  0  0  0  0  0
    4.7981   -0.7652    2.3369 C   0  0  0  0  0  0  0  0  0  0  0  0
    3.8300   -0.2138    1.2011 C   0  0  0  0  0  0  0  0  0  0  0  0
    2.5427   -1.0481    0.7976 C   0  0  0  0  0  0  0  0  0  0  0  0
    1.4720   -0.1762    0.0217 C   0  0  0  0  0  0  0  0  0  0  0  0
   -0.0343   -0.6808   -0.0614 C   0  0  0  0  0  0  0  0  0  0  0  0
   -0.8952    0.3226   -0.9374 C   0  0  0  0  0  0  0  0  0  0  0  0
   -2.4410    0.0375   -1.1464 C   0  0  0  0  0  0  0  0  0  0  0  0
   -3.2270    1.3208   -1.6113 C   0  0  0  0  0  0  0  0  0  0  0  0
   -4.7904    1.3731   -1.3788 C   0  0  0  0  0  0  0  0  0  0  0  0
   -5.3431    2.7477   -1.9087 C   0  0  0  0  0  0  0  0  0  0  0  0
   -6.8510    3.0837   -1.6422 C   0  0  0  0  0  0  0  0  0  0  0  0
   -7.1241    4.6124   -1.7951 C   0  0  0  0  0  0  0  0  0  0  0  0
   -8.5372    5.0480   -1.3081 C   0  0  0  0  0  0  0  0  0  0  0  0
   -8.5165    5.4399    0.1747 C   0  0  0  0  0  0  0  0  0  0  0  0
   -9.1253    6.1703   -2.1624 C   0  0  0  0  0  0  0  0  0  0  0  0
  -10.3497    6.0223   -2.8577 C   0  0  0  0  0  0  0  0  0  0  0  0
  -10.8339    7.0856   -3.6399 C   0  0  0  0  0  0  0  0  0  0  0  0
  -10.1336    8.2859   -3.7315 C   0  0  0  0  0  0  0  0  0  0  0  0
   -8.9358    8.4402   -3.0446 C   0  0  0  0  0  0  0  0  0  0  0  0
   -8.4358    7.3930   -2.2695 C   0  0  0  0  0  0  0  0  0  0  0  0
   -7.8867    2.2793   -2.4418 C   0  0  0  0  0  0  0  0  0  0  0  0
   -8.7684    1.4700   -1.6855 C   0  0  0  0  0  0  0  0  0  0  0  0
   -9.7758    0.7098   -2.2800 C   0  0  0  0  0  0  0  0  0  0  0  0
   -9.9402    0.7438   -3.6545 C   0  0  0  0  0  0  0  0  0  0  0  0
   -9.1048    1.5487   -4.4243 C   0  0  0  0  0  0  0  0  0  0  0  0
   -8.0753    2.3231   -3.8433 C   0  0  0  0  0  0  0  0  0  0  0  0
   -5.5591    0.2017   -1.9723 C   0  0  0  0  0  0  0  0  0  0  0  0
   -6.2809   -0.7133   -1.1685 C   0  0  0  0  0  0  0  0  0  0  0  0
   -7.0007   -1.7550   -1.7833 C   0  0  0  0  0  0  0  0  0  0  0  0
   -7.0131   -1.9012   -3.1692 C   0  0  0  0  0  0  0  0  0  0  0  0
   -6.3044   -1.0098   -3.9627 C   0  0  0  0  0  0  0  0  0  0  0  0
   -5.5860    0.0287   -3.3703 C   0  0  0  0  0  0  0  0  0  0  0  0
   -2.7359   -1.1582   -2.0601 C   0  0  0  0  0  0  0  0  0  0  0  0
   -3.3684   -2.2677   -1.4523 C   0  0  0  0  0  0  0  0  0  0  0  0
   -3.7210   -3.4118   -2.1685 C   0  0  0  0  0  0  0  0  0  0  0  0
   -3.4510   -3.4821   -3.5242 C   0  0  0  0  0  0  0  0  0  0  0  0
   -2.8313   -2.4066   -4.1550 C   0  0  0  0  0  0  0  0  0  0  0  0
   -2.4582   -1.2411   -3.4465 C   0  0  0  0  0  0  0  0  0  0  0  0
   -0.1708   -2.1179   -0.5358 C   0  0  0  0  0  0  0  0  0  0  0  0
   -0.7048   -3.1387    0.2880 C   0  0  0  0  0  0  0  0  0  0  0  0
   -0.8197   -4.4468   -0.2191 C   0  0  0  0  0  0  0  0  0  0  0  0
   -0.4165   -4.7524   -1.5180 C   0  0  0  0  0  0  0  0  0  0  0  0
    0.1085   -3.7559   -2.3300 C   0  0  0  0  0  0  0  0  0  0  0  0
    0.2305   -2.4541   -1.8434 C   0  0  0  0  0  0  0  0  0  0  0  0
    2.8782   -2.3556    0.0657 C   0  0  0  0  0  0  0  0  0  0  0  0
    2.5229   -3.5485    0.7395 C   0  0  0  0  0  0  0  0  0  0  0  0
    2.7593   -4.8130    0.1999 C   0  0  0  0  0  0  0  0  0  0  0  0
    3.3621   -4.9265   -1.0403 C   0  0  0  0  0  0  0  0  0  0  0  0
    3.7240   -3.7739   -1.7332 C   0  0  0  0  0  0  0  0  0  0  0  0
    3.4961   -2.4816   -1.2046 C   0  0  0  0  0  0  0  0  0  0  0  0
    5.2169   -2.2087    2.1156 C   0  0  0  0  0  0  0  0  0  0  0  0
    4.8612   -3.2451    3.0126 C   0  0  0  0  0  0  0  0  0  0  0  0
    5.2922   -4.5600    2.7547 C   0  0  0  0  0  0  0  0  0  0  0  0
    6.0620   -4.8571    1.6311 C   0  0  0  0  0  0  0  0  0  0  0  0
    6.4115   -3.8453    0.7467 C   0  0  0  0  0  0  0  0  0  0  0  0
    5.9928   -2.5364    0.9864 C   0  0  0  0  0  0  0  0  0  0  0  0
    7.9814   -1.3752    3.2828 C   0  0  0  0  0  0  0  0  0  0  0  0
    7.8342   -2.4752    4.1598 C   0  0  0  0  0  0  0  0  0  0  0  0
    8.5522   -3.6602    3.9976 C   0  0  0  0  0  0  0  0  0  0  0  0
    9.4468   -3.7818    2.9482 C   0  0  0  0  0  0  0  0  0  0  0  0
    9.6196   -2.7159    2.0688 C   0  0  0  0  0  0  0  0  0  0  0  0
    8.8960   -1.5094    2.2094 C   0  0  0  0  0  0  0  0  0  0  0  0
    7.4231    1.9947    3.9634 H   0  0  0  0  0  0  0  0  0  0  0  0
    8.7789    1.2794    3.1376 H   0  0  0  0  0  0  0  0  0  0  0  0
    6.5733   -0.3247    4.5290 H   0  0  0  0  0  0  0  0  0  0  0  0
    5.6257    1.1878    2.7741 H   0  0  0  0  0  0  0  0  0  0  0  0
    6.5106    0.3397    1.5385 H   0  0  0  0  0  0  0  0  0  0  0  0
    3.4822    0.7664    1.5564 H   0  0  0  0  0  0  0  0  0  0  0  0
    4.4265    0.0051    0.3140 H   0  0  0  0  0  0  0  0  0  0  0  0
    2.0612   -1.2949    1.7543 H   0  0  0  0  0  0  0  0  0  0  0  0
    1.4306    0.8037    0.5177 H   0  0  0  0  0  0  0  0  0  0  0  0
    1.8257    0.0357   -0.9892 H   0  0  0  0  0  0  0  0  0  0  0  0
   -0.4281   -0.5927    0.9569 H   0  0  0  0  0  0  0  0  0  0  0  0
   -0.8095    1.3008   -0.4441 H   0  0  0  0  0  0  0  0  0  0  0  0
   -0.3978    0.4426   -1.9020 H   0  0  0  0  0  0  0  0  0  0  0  0
   -2.8233   -0.1845   -0.1401 H   0  0  0  0  0  0  0  0  0  0  0  0
   -2.8114    2.1748   -1.0586 H   0  0  0  0  0  0  0  0  0  0  0  0
   -3.0211    1.5350   -2.6637 H   0  0  0  0  0  0  0  0  0  0  0  0
   -4.9272    1.3920   -0.2922 H   0  0  0  0  0  0  0  0  0  0  0  0
   -4.7479    3.5280   -1.4138 H   0  0  0  0  0  0  0  0  0  0  0  0
   -5.1064    2.8398   -2.9707 H   0  0  0  0  0  0  0  0  0  0  0  0
   -7.0018    2.8650   -0.5755 H   0  0  0  0  0  0  0  0  0  0  0  0
   -6.3645    5.1697   -1.2308 H   0  0  0  0  0  0  0  0  0  0  0  0
   -6.9788    4.9069   -2.8388 H   0  0  0  0  0  0  0  0  0  0  0  0
   -9.2102    4.1926   -1.3686 H   0  0  0  0  0  0  0  0  0  0  0  0
   -9.5197    5.7184    0.5172 H   0  0  0  0  0  0  0  0  0  0  0  0
   -8.1738    4.6024    0.7914 H   0  0  0  0  0  0  0  0  0  0  0  0
   -7.8532    6.2900    0.3659 H   0  0  0  0  0  0  0  0  0  0  0  0
  -11.1620    4.7550   -2.8092 C   0  0  0  0  0  0  0  0  0  0  0  0
  -11.7692    6.9818   -4.1864 H   0  0  0  0  0  0  0  0  0  0  0  0
  -10.5249    9.0973   -4.3388 H   0  0  0  0  0  0  0  0  0  0  0  0
   -8.3879    9.3758   -3.1127 H   0  0  0  0  0  0  0  0  0  0  0  0
   -7.4939    7.5379   -1.7455 H   0  0  0  0  0  0  0  0  0  0  0  0
   -8.6689    1.4199   -0.6034 H   0  0  0  0  0  0  0  0  0  0  0  0
  -10.4206    0.0875   -1.6669 H   0  0  0  0  0  0  0  0  0  0  0  0
  -10.7167    0.1516   -4.1289 H   0  0  0  0  0  0  0  0  0  0  0  0
   -9.2636    1.5779   -5.5008 H   0  0  0  0  0  0  0  0  0  0  0  0
   -7.3177    3.2113   -4.7915 C   0  0  0  0  0  0  0  0  0  0  0  0
   -6.3163   -0.6130    0.3317 C   0  0  0  0  0  0  0  0  0  0  0  0
   -7.5621   -2.4645   -1.1809 H   0  0  0  0  0  0  0  0  0  0  0  0
   -7.5730   -2.7100   -3.6276 H   0  0  0  0  0  0  0  0  0  0  0  0
   -6.3068   -1.1184   -5.0426 H   0  0  0  0  0  0  0  0  0  0  0  0
   -5.0444    0.7127   -4.0173 H   0  0  0  0  0  0  0  0  0  0  0  0
   -3.6010   -2.2464   -0.3905 H   0  0  0  0  0  0  0  0  0  0  0  0
   -4.2069   -4.2385   -1.6608 H   0  0  0  0  0  0  0  0  0  0  0  0
   -3.7270   -4.3653   -4.0906 H   0  0  0  0  0  0  0  0  0  0  0  0
   -2.6428   -2.4755   -5.2241 H   0  0  0  0  0  0  0  0  0  0  0  0
   -1.8624   -0.1406   -4.2799 C   0  0  0  0  0  0  0  0  0  0  0  0
   -1.1654   -2.8773    1.6953 C   0  0  0  0  0  0  0  0  0  0  0  0
   -1.2290   -5.2417    0.3987 H   0  0  0  0  0  0  0  0  0  0  0  0
   -0.5125   -5.7651   -1.8960 H   0  0  0  0  0  0  0  0  0  0  0  0
    0.4236   -3.9850   -3.3428 H   0  0  0  0  0  0  0  0  0  0  0  0
    0.6415   -1.6943   -2.5022 H   0  0  0  0  0  0  0  0  0  0  0  0
    2.0455   -3.5000    1.7152 H   0  0  0  0  0  0  0  0  0  0  0  0
    2.4688   -5.6994    0.7541 H   0  0  0  0  0  0  0  0  0  0  0  0
    3.5488   -5.9055   -1.4687 H   0  0  0  0  0  0  0  0  0  0  0  0
    4.1927   -3.8913   -2.7077 H   0  0  0  0  0  0  0  0  0  0  0  0
    3.9261   -1.3301   -2.0710 C   0  0  0  0  0  0  0  0  0  0  0  0
    4.0348   -2.9940    4.2435 C   0  0  0  0  0  0  0  0  0  0  0  0
    5.0298   -5.3671    3.4335 H   0  0  0  0  0  0  0  0  0  0  0  0
    6.3878   -5.8754    1.4460 H   0  0  0  0  0  0  0  0  0  0  0  0
    7.0097   -4.0685   -0.1307 H   0  0  0  0  0  0  0  0  0  0  0  0
    6.2818   -1.7647    0.2784 H   0  0  0  0  0  0  0  0  0  0  0  0
    7.1467   -2.4128    4.9998 H   0  0  0  0  0  0  0  0  0  0  0  0
    8.4090   -4.4783    4.6958 H   0  0  0  0  0  0  0  0  0  0  0  0
   10.0133   -4.6977    2.8176 H   0  0  0  0  0  0  0  0  0  0  0  0
   10.3389   -2.8262    1.2603 H   0  0  0  0  0  0  0  0  0  0  0  0
    9.2422   -0.4286    1.2231 C   0  0  0  0  0  0  0  0  0  0  0  0
  -11.4150    4.4976   -1.7760 H   0  0  0  0  0  0  0  0  0  0  0  0
  -10.6099    3.9352   -3.2738 H   0  0  0  0  0  0  0  0  0  0  0  0
  -12.1071    4.8592   -3.3535 H   0  0  0  0  0  0  0  0  0  0  0  0
   -6.3026    3.4252   -4.4661 H   0  0  0  0  0  0  0  0  0  0  0  0
   -7.8545    4.1566   -4.9205 H   0  0  0  0  0  0  0  0  0  0  0  0
   -7.2231    2.7348   -5.7742 H   0  0  0  0  0  0  0  0  0  0  0  0
   -6.7749    0.3308    0.6418 H   0  0  0  0  0  0  0  0  0  0  0  0
   -5.3055   -0.6829    0.7446 H   0  0  0  0  0  0  0  0  0  0  0  0
   -6.9053   -1.4227    0.7757 H   0  0  0  0  0  0  0  0  0  0  0  0
   -1.2168    0.5303   -3.7183 H   0  0  0  0  0  0  0  0  0  0  0  0
   -2.6594    0.4500   -4.7419 H   0  0  0  0  0  0  0  0  0  0  0  0
   -1.2412   -0.5592   -5.0803 H   0  0  0  0  0  0  0  0  0  0  0  0
   -1.9900   -2.1576    1.6991 H   0  0  0  0  0  0  0  0  0  0  0  0
   -0.3394   -2.4961    2.3036 H   0  0  0  0  0  0  0  0  0  0  0  0
   -1.5283   -3.7916    2.1769 H   0  0  0  0  0  0  0  0  0  0  0  0
    4.6412   -0.6845   -1.5625 H   0  0  0  0  0  0  0  0  0  0  0  0
    3.0686   -0.7528   -2.4189 H   0  0  0  0  0  0  0  0  0  0  0  0
    4.4386   -1.6838   -2.9737 H   0  0  0  0  0  0  0  0  0  0  0  0
   10.1365    0.1070    1.5560 H   0  0  0  0  0  0  0  0  0  0  0  0
    8.4452    0.2950    1.0709 H   0  0  0  0  0  0  0  0  0  0  0  0
    9.4507   -0.8617    0.2380 H   0  0  0  0  0  0  0  0  0  0  0  0
    9.6999   -0.1285    5.5784 C   0  0  0  0  0  0  0  0  0  0  0  0
    8.0811    1.1873    6.0980 H   0  0  0  0  0  0  0  0  0  0  0  0
    9.7094    2.4276    5.4384 C   0  0  0  0  0  0  0  0  0  0  0  0
    3.0553   -2.5895    3.9700 H   0  0  0  0  0  0  0  0  0  0  0  0
    4.5479   -2.2965    4.9128 H   0  0  0  0  0  0  0  0  0  0  0  0
    3.8602   -3.9168    4.8068 H   0  0  0  0  0  0  0  0  0  0  0  0
    4.2291   -0.6867    3.2695 H   0  0  0  0  0  0  0  0  0  0  0  0
   10.7847   -0.4101    4.7261 C   0  0  0  0  0  0  0  0  0  0  0  0
   11.6165   -1.5090    4.9415 C   0  0  0  0  0  0  0  0  0  0  0  0
    9.4602   -0.9991    6.6687 C   0  0  0  0  0  0  0  0  0  0  0  0
   10.3087   -2.1040    6.8711 C   0  0  0  0  0  0  0  0  0  0  0  0
    8.3280   -0.7859    7.6349 C   0  0  0  0  0  0  0  0  0  0  0  0
   11.3795   -2.3554    6.0155 C   0  0  0  0  0  0  0  0  0  0  0  0
   10.1401   -2.7804    7.7050 H   0  0  0  0  0  0  0  0  0  0  0  0
   12.0250   -3.2112    6.1851 H   0  0  0  0  0  0  0  0  0  0  0  0
   10.9943    0.2350    3.8782 H   0  0  0  0  0  0  0  0  0  0  0  0
   12.4453   -1.6998    4.2673 H   0  0  0  0  0  0  0  0  0  0  0  0
    8.9993    3.2612    5.3406 H   0  0  0  0  0  0  0  0  0  0  0  0
   10.3630    2.5124    4.5683 H   0  0  0  0  0  0  0  0  0  0  0  0
   10.5194    2.6646    6.7602 C   0  0  0  0  0  0  0  0  0  0  0  0
   11.7494    1.7754    7.0008 C   0  0  0  0  0  0  0  0  0  0  0  0
    9.7988    2.4659    7.5670 H   0  0  0  0  0  0  0  0  0  0  0  0
   10.9127    4.1653    6.9307 C   0  0  0  0  0  0  0  0  0  0  0  0
   10.0056    4.7824    6.8819 H   0  0  0  0  0  0  0  0  0  0  0  0
   11.5232    4.4898    6.0844 H   0  0  0  0  0  0  0  0  0  0  0  0
   11.6237    4.4628    8.2718 C   0  0  0  0  0  0  0  0  0  0  0  0
   12.3836    3.7096    8.5048 H   0  0  0  0  0  0  0  0  0  0  0  0
   10.8853    4.3784    9.0756 H   0  0  0  0  0  0  0  0  0  0  0  0
   12.9186    1.7283    6.2031 C   0  0  0  0  0  0  0  0  0  0  0  0
   13.9943    0.9087    6.6113 C   0  0  0  0  0  0  0  0  0  0  0  0
   11.7288    1.0012    8.1872 C   0  0  0  0  0  0  0  0  0  0  0  0
   12.8019    0.1966    8.5685 C   0  0  0  0  0  0  0  0  0  0  0  0
   10.8544    1.0178    8.8345 H   0  0  0  0  0  0  0  0  0  0  0  0
   13.9370    0.1490    7.7773 C   0  0  0  0  0  0  0  0  0  0  0  0
   13.1181    2.5049    4.9306 C   0  0  0  0  0  0  0  0  0  0  0  0
   14.8987    0.8531    6.0084 H   0  0  0  0  0  0  0  0  0  0  0  0
   12.7426   -0.3939    9.4777 H   0  0  0  0  0  0  0  0  0  0  0  0
   14.7759   -0.4793    8.0611 H   0  0  0  0  0  0  0  0  0  0  0  0
    7.3690   -0.7922    7.1077 H   0  0  0  0  0  0  0  0  0  0  0  0
    8.4520    0.1634    8.1650 H   0  0  0  0  0  0  0  0  0  0  0  0
    8.2879   -1.5784    8.3899 H   0  0  0  0  0  0  0  0  0  0  0  0
   13.1547    3.5773    5.1229 H   0  0  0  0  0  0  0  0  0  0  0  0
   12.3478    2.2780    4.1946 H   0  0  0  0  0  0  0  0  0  0  0  0
   14.0701    2.2455    4.4522 H   0  0  0  0  0  0  0  0  0  0  0  0
   13.4711    5.9637    7.4796 C   0  0  0  0  0  0  0  0  0  0  0  0
   14.2527    7.1163    7.5363 C   0  0  0  0  0  0  0  0  0  0  0  0
   13.9428    8.1138    8.4521 C   0  0  0  0  0  0  0  0  0  0  0  0
   12.8527    7.9548    9.3068 C   0  0  0  0  0  0  0  0  0  0  0  0
   12.3590    5.7880    8.3255 C   0  0  0  0  0  0  0  0  0  0  0  0
   13.7563    5.1759    6.7855 H   0  0  0  0  0  0  0  0  0  0  0  0
   15.1119    7.2239    6.8805 H   0  0  0  0  0  0  0  0  0  0  0  0
   14.5576    9.0072    8.5128 H   0  0  0  0  0  0  0  0  0  0  0  0
   12.0506    6.8005    9.2567 C   0  0  0  0  0  0  0  0  0  0  0  0
   12.6403    8.7385   10.0316 H   0  0  0  0  0  0  0  0  0  0  0  0
   10.9242    6.6628   10.2426 C   0  0  0  0  0  0  0  0  0  0  0  0
   10.7682    7.5888   10.8065 H   0  0  0  0  0  0  0  0  0  0  0  0
   11.1498    5.8696   10.9629 H   0  0  0  0  0  0  0  0  0  0  0  0
    9.9865    6.4374    9.7257 H   0  0  0  0  0  0  0  0  0  0  0  0
  1  2  1  0  0  0  0
  2  3  1  0  0  0  0
  2 67  1  0  0  0  0
  2 68  1  0  0  0  0
  3  4  1  0  0  0  0
  3 61  1  0  0  0  0
  3 69  1  0  0  0  0
  4  5  1  0  0  0  0
  4 70  1  0  0  0  0
  4 71  1  0  0  0  0
  5  6  1  0  0  0  0
  5 55  1  0  0  0  0
  6  7  1  0  0  0  0
  6 72  1  0  0  0  0
  6 73  1  0  0  0  0
  7  8  1  0  0  0  0
  7 49  1  0  0  0  0
  7 74  1  0  0  0  0
  8  9  1  0  0  0  0
  8 75  1  0  0  0  0
  8 76  1  0  0  0  0
  9 10  1  0  0  0  0
  9 43  1  0  0  0  0
  9 77  1  0  0  0  0
 10 11  1  0  0  0  0
 10 78  1  0  0  0  0
 10 79  1  0  0  0  0
 11 12  1  0  0  0  0
 11 37  1  0  0  0  0
 11 80  1  0  0  0  0
 12 13  1  0  0  0  0
 12 81  1  0  0  0  0
 12 82  1  0  0  0  0
 13 14  1  0  0  0  0
 13 31  1  0  0  0  0
 13 83  1  0  0  0  0
 14 15  1  0  0  0  0
 14 84  1  0  0  0  0
 14 85  1  0  0  0  0
 15 16  1  0  0  0  0
 15 25  1  0  0  0  0
 15 86  1  0  0  0  0
 16 17  1  0  0  0  0
 16 87  1  0  0  0  0
 16 88  1  0  0  0  0
 17 18  1  0  0  0  0
 17 19  1  0  0  0  0
 17 89  1  0  0  0  0
 18 90  1  0  0  0  0
 18 91  1  0  0  0  0
 18 92  1  0  0  0  0
 19 20  2  0  0  0  0
 19 24  1  0  0  0  0
 20 21  1  0  0  0  0
 20 93  1  0  0  0  0
 21 22  2  0  0  0  0
 21 94  1  0  0  0  0
 22 23  1  0  0  0  0
 22 95  1  0  0  0  0
 23 24  2  0  0  0  0
 23 96  1  0  0  0  0
 24 97  1  0  0  0  0
 25 26  2  0  0  0  0
 25 30  1  0  0  0  0
 26 27  1  0  0  0  0
 26 98  1  0  0  0  0
 27 28  2  0  0  0  0
 27 99  1  0  0  0  0
 28 29  1  0  0  0  0
 28100  1  0  0  0  0
 29 30  2  0  0  0  0
 29101  1  0  0  0  0
 30102  1  0  0  0  0
 31 32  2  0  0  0  0
 31 36  1  0  0  0  0
 32 33  1  0  0  0  0
 32103  1  0  0  0  0
 33 34  2  0  0  0  0
 33104  1  0  0  0  0
 34 35  1  0  0  0  0
 34105  1  0  0  0  0
 35 36  2  0  0  0  0
 35106  1  0  0  0  0
 36107  1  0  0  0  0
 37 38  2  0  0  0  0
 37 42  1  0  0  0  0
 38 39  1  0  0  0  0
 38108  1  0  0  0  0
 39 40  2  0  0  0  0
 39109  1  0  0  0  0
 40 41  1  0  0  0  0
 40110  1  0  0  0  0
 41 42  2  0  0  0  0
 41111  1  0  0  0  0
 42112  1  0  0  0  0
 43 44  2  0  0  0  0
 43 48  1  0  0  0  0
 44 45  1  0  0  0  0
 44113  1  0  0  0  0
 45 46  2  0  0  0  0
 45114  1  0  0  0  0
 46 47  1  0  0  0  0
 46115  1  0  0  0  0
 47 48  2  0  0  0  0
 47116  1  0  0  0  0
 48117  1  0  0  0  0
 49 50  2  0  0  0  0
 49 54  1  0  0  0  0
 50 51  1  0  0  0  0
 50118  1  0  0  0  0
 51 52  2  0  0  0  0
 51119  1  0  0  0  0
 52 53  1  0  0  0  0
 52120  1  0  0  0  0
 53 54  2  0  0  0  0
 53121  1  0  0  0  0
 54122  1  0  0  0  0
 55 56  2  0  0  0  0
 55 60  1  0  0  0  0
 56 57  1  0  0  0  0
 56123  1  0  0  0  0
 57 58  2  0  0  0  0
 57124  1  0  0  0  0
 58 59  1  0  0  0  0
 58125  1  0  0  0  0
 59 60  2  0  0  0  0
 59126  1  0  0  0  0
 60127  1  0  0  0  0
 61 62  2  0  0  0  0
 61 66  1  0  0  0  0
 62 63  1  0  0  0  0
 62128  1  0  0  0  0
 63 64  2  0  0  0  0
 63129  1  0  0  0  0
 64 65  1  0  0  0  0
 64130  1  0  0  0  0
 65 66  2  0  0  0  0
 65131  1  0  0  0  0
 66132  1  0  0  0  0
133 93  1  0  0  0  0
134 93  1  0  0  0  0
135 93  1  0  0  0  0
136102  1  0  0  0  0
137102  1  0  0  0  0
138102  1  0  0  0  0
139103  1  0  0  0  0
140103  1  0  0  0  0
141103  1  0  0  0  0
142112  1  0  0  0  0
143112  1  0  0  0  0
144112  1  0  0  0  0
145113  1  0  0  0  0
146113  1  0  0  0  0
147113  1  0  0  0  0
148122  1  0  0  0  0
149122  1  0  0  0  0
150122  1  0  0  0  0
151132  1  0  0  0  0
152132  1  0  0  0  0
153132  1  0  0  0  0
154  1  1  0  0  0  0
155  1  1  0  0  0  0
156  1  1  0  0  0  0
157123  1  0  0  0  0
158123  1  0  0  0  0
159123  1  0  0  0  0
160  5  1  0  0  0  0
161154  1  0  0  0  0
162161  2  0  0  0  0
163154  2  0  0  0  0
164163  1  0  0  0  0
165163  1  0  0  0  0
166164  2  0  0  0  0
166162  1  0  0  0  0
167164  1  0  0  0  0
168166  1  0  0  0  0
169161  1  0  0  0  0
170162  1  0  0  0  0
171156  1  0  0  0  0
172156  1  0  0  0  0
173156  1  0  0  0  0
174173  1  0  0  0  0
175173  1  0  0  0  0
176173  1  0  0  0  0
177176  1  0  0  0  0
178176  1  0  0  0  0
179176  1  0  0  0  0
180179  1  0  0  0  0
181179  1  0  0  0  0
182174  1  0  0  0  0
183182  2  0  0  0  0
183187  1  0  0  0  0
184174  2  0  0  0  0
185184  1  0  0  0  0
186184  1  0  0  0  0
187185  2  0  0  0  0
188182  1  0  0  0  0
189183  1  0  0  0  0
190185  1  0  0  0  0
191187  1  0  0  0  0
192165  1  0  0  0  0
193165  1  0  0  0  0
194165  1  0  0  0  0
195188  1  0  0  0  0
196188  1  0  0  0  0
197188  1  0  0  0  0
199198  1  0  0  0  0
200199  2  0  0  0  0
201200  1  0  0  0  0
202198  2  0  0  0  0
202179  1  0  0  0  0
203198  1  0  0  0  0
204199  1  0  0  0  0
205200  1  0  0  0  0
206201  2  0  0  0  0
206202  1  0  0  0  0
207201  1  0  0  0  0
208206  1  0  0  0  0
209208  1  0  0  0  0
210208  1  0  0  0  0
211208  1  0  0  0  0
M  END
