
 OpenBabel10311215563D

370392  0  0  0  0  0  0  0  0999 V2000
   -0.0259    0.2635   -0.8501 C   0  0  0  0  0  0  0  0  0  0  0  0
   -1.1449   -0.5744   -0.9585 C   0  0  0  0  0  0  0  0  0  0  0  0
   -2.2498   -0.3934   -0.1250 C   0  0  0  0  0  0  0  0  0  0  0  0
   -2.2533    0.6331    0.8166 C   0  0  0  0  0  0  0  0  0  0  0  0
   -1.1555    1.4848    0.9202 C   0  0  0  0  0  0  0  0  0  0  0  0
   -0.0490    1.3037    0.0890 C   0  0  0  0  0  0  0  0  0  0  0  0
    1.2070    0.0254   -1.6926 C   0  0  0  0  0  0  0  0  0  0  0  0
    1.8599   -1.3465   -1.4513 C   0  0  0  0  0  0  0  0  0  0  0  0
    1.1469   -2.1292   -1.7399 H   0  0  0  0  0  0  0  0  0  0  0  0
    2.2969   -1.5764    0.0131 C   0  0  0  0  0  0  0  0  0  0  0  0
    2.7144   -1.4540   -2.1308 H   0  0  0  0  0  0  0  0  0  0  0  0
    1.4488   -1.3135    0.6547 H   0  0  0  0  0  0  0  0  0  0  0  0
    3.4853   -0.7064    0.4068 C   0  0  0  0  0  0  0  0  0  0  0  0
    2.5897   -3.0776    0.2631 C   0  0  0  0  0  0  0  0  0  0  0  0
    3.5012   -3.3703   -0.2730 H   0  0  0  0  0  0  0  0  0  0  0  0
    1.7825   -3.6860   -0.1638 H   0  0  0  0  0  0  0  0  0  0  0  0
    2.7456   -3.4017    1.7673 C   0  0  0  0  0  0  0  0  0  0  0  0
    1.4172   -3.2974    2.5129 C   0  0  0  0  0  0  0  0  0  0  0  0
    3.4399   -2.6690    2.1931 H   0  0  0  0  0  0  0  0  0  0  0  0
    3.3931   -4.7921    1.9618 C   0  0  0  0  0  0  0  0  0  0  0  0
    1.9438    0.8196   -1.5217 H   0  0  0  0  0  0  0  0  0  0  0  0
    0.9190    0.1045   -2.7484 H   0  0  0  0  0  0  0  0  0  0  0  0
    4.7418   -0.8518   -0.2007 C   0  0  0  0  0  0  0  0  0  0  0  0
    3.3485    0.2259    1.4469 C   0  0  0  0  0  0  0  0  0  0  0  0
    4.8888   -1.5714   -1.0021 H   0  0  0  0  0  0  0  0  0  0  0  0
    5.8340   -0.0971    0.2317 C   0  0  0  0  0  0  0  0  0  0  0  0
    4.4408    0.9804    1.8778 C   0  0  0  0  0  0  0  0  0  0  0  0
    2.3898    0.3521    1.9459 H   0  0  0  0  0  0  0  0  0  0  0  0
    5.6841    0.8161    1.2725 C   0  0  0  0  0  0  0  0  0  0  0  0
    4.3234    1.6856    2.6959 H   0  0  0  0  0  0  0  0  0  0  0  0
    6.8056   -0.2328   -0.2354 H   0  0  0  0  0  0  0  0  0  0  0  0
    6.5378    1.3930    1.6172 H   0  0  0  0  0  0  0  0  0  0  0  0
    0.8073    1.9663    0.1951 H   0  0  0  0  0  0  0  0  0  0  0  0
   -1.1558    2.2841    1.6561 H   0  0  0  0  0  0  0  0  0  0  0  0
   -3.1093    0.7664    1.4721 H   0  0  0  0  0  0  0  0  0  0  0  0
   -3.1032   -1.0614   -0.2036 H   0  0  0  0  0  0  0  0  0  0  0  0
   -1.1556   -1.3880   -1.6795 H   0  0  0  0  0  0  0  0  0  0  0  0
    0.3397   -4.1506    2.2285 C   0  0  0  0  0  0  0  0  0  0  0  0
    1.2694   -2.3526    3.5401 C   0  0  0  0  0  0  0  0  0  0  0  0
    0.4187   -4.8986    1.4441 H   0  0  0  0  0  0  0  0  0  0  0  0
   -0.8469   -4.0679    2.9594 C   0  0  0  0  0  0  0  0  0  0  0  0
    0.0824   -2.2703    4.2694 C   0  0  0  0  0  0  0  0  0  0  0  0
    2.0891   -1.6820    3.7885 H   0  0  0  0  0  0  0  0  0  0  0  0
   -0.9746   -3.1299    3.9804 C   0  0  0  0  0  0  0  0  0  0  0  0
   -0.0134   -1.5405    5.0681 H   0  0  0  0  0  0  0  0  0  0  0  0
   -1.6687   -4.7428    2.7364 H   0  0  0  0  0  0  0  0  0  0  0  0
   -1.8953   -3.0718    4.5539 H   0  0  0  0  0  0  0  0  0  0  0  0
    4.2722   -4.8843    1.3117 H   0  0  0  0  0  0  0  0  0  0  0  0
    2.6953   -5.5737    1.6363 H   0  0  0  0  0  0  0  0  0  0  0  0
    3.7996   -5.0361    3.4321 C   0  0  0  0  0  0  0  0  0  0  0  0
    2.9428   -4.7706    4.0606 H   0  0  0  0  0  0  0  0  0  0  0  0
    4.9858   -4.1696    3.8484 C   0  0  0  0  0  0  0  0  0  0  0  0
    4.0777   -6.5345    3.6769 C   0  0  0  0  0  0  0  0  0  0  0  0
    4.9933   -6.8317    3.1506 H   0  0  0  0  0  0  0  0  0  0  0  0
    3.2709   -7.1378    3.2423 H   0  0  0  0  0  0  0  0  0  0  0  0
    4.2141   -6.8470    5.1817 C   0  0  0  0  0  0  0  0  0  0  0  0
    2.8804   -6.7346    5.9172 C   0  0  0  0  0  0  0  0  0  0  0  0
    4.9040   -6.1120    5.6099 H   0  0  0  0  0  0  0  0  0  0  0  0
    4.8596   -8.2315    5.3865 C   0  0  0  0  0  0  0  0  0  0  0  0
    5.7300   -8.3391    4.7274 H   0  0  0  0  0  0  0  0  0  0  0  0
    4.1552   -9.0169    5.0855 H   0  0  0  0  0  0  0  0  0  0  0  0
    5.2837   -8.4395    6.8537 C   0  0  0  0  0  0  0  0  0  0  0  0
    6.2495   -4.3096    3.2557 C   0  0  0  0  0  0  0  0  0  0  0  0
    7.3286   -3.5357    3.6866 C   0  0  0  0  0  0  0  0  0  0  0  0
    4.8294   -3.2269    4.8772 C   0  0  0  0  0  0  0  0  0  0  0  0
    6.4100   -5.0324    2.4599 H   0  0  0  0  0  0  0  0  0  0  0  0
    5.9088   -2.4538    5.3068 C   0  0  0  0  0  0  0  0  0  0  0  0
    3.8634   -3.1002    5.3605 H   0  0  0  0  0  0  0  0  0  0  0  0
    7.1583   -2.6096    4.7133 C   0  0  0  0  0  0  0  0  0  0  0  0
    5.7744   -1.7352    6.1106 H   0  0  0  0  0  0  0  0  0  0  0  0
    8.3040   -3.6616    3.2257 H   0  0  0  0  0  0  0  0  0  0  0  0
    8.0005   -2.0135    5.0527 H   0  0  0  0  0  0  0  0  0  0  0  0
    1.7971   -7.5755    5.6205 C   0  0  0  0  0  0  0  0  0  0  0  0
    2.7321   -5.7899    6.9450 C   0  0  0  0  0  0  0  0  0  0  0  0
    1.8758   -8.3223    4.8349 H   0  0  0  0  0  0  0  0  0  0  0  0
    0.6033   -7.4796    6.3382 C   0  0  0  0  0  0  0  0  0  0  0  0
    1.5382   -5.6947    7.6614 C   0  0  0  0  0  0  0  0  0  0  0  0
    3.5560   -5.1280    7.2025 H   0  0  0  0  0  0  0  0  0  0  0  0
    0.4747   -6.5412    7.3591 C   0  0  0  0  0  0  0  0  0  0  0  0
    1.4420   -4.9645    8.4597 H   0  0  0  0  0  0  0  0  0  0  0  0
   -0.2243   -8.1433    6.1040 H   0  0  0  0  0  0  0  0  0  0  0  0
   -0.4521   -6.4722    7.9212 H   0  0  0  0  0  0  0  0  0  0  0  0
    4.4360   -8.1548    7.4860 H   0  0  0  0  0  0  0  0  0  0  0  0
    6.4787   -7.5694    7.2376 C   0  0  0  0  0  0  0  0  0  0  0  0
    5.5565   -9.9304    7.1207 C   0  0  0  0  0  0  0  0  0  0  0  0
    6.4793  -10.2353    6.6115 H   0  0  0  0  0  0  0  0  0  0  0  0
    4.7565  -10.5419    6.6849 H   0  0  0  0  0  0  0  0  0  0  0  0
    5.6682  -10.2141    8.6300 C   0  0  0  0  0  0  0  0  0  0  0  0
    4.3207  -10.1006    9.3394 C   0  0  0  0  0  0  0  0  0  0  0  0
    6.3449   -9.4673    9.0586 H   0  0  0  0  0  0  0  0  0  0  0  0
    6.3205  -11.5880    8.8534 C   0  0  0  0  0  0  0  0  0  0  0  0
    7.2089  -11.6879    8.2171 H   0  0  0  0  0  0  0  0  0  0  0  0
    5.6325  -12.3813    8.5349 H   0  0  0  0  0  0  0  0  0  0  0  0
    6.7101  -11.7914   10.3273 C   0  0  0  0  0  0  0  0  0  0  0  0
    7.7298   -7.7131    6.6191 C   0  0  0  0  0  0  0  0  0  0  0  0
    6.3420   -6.6130    8.2564 C   0  0  0  0  0  0  0  0  0  0  0  0
    7.8753   -8.4454    5.8294 H   0  0  0  0  0  0  0  0  0  0  0  0
    8.8143   -6.9273    7.0137 C   0  0  0  0  0  0  0  0  0  0  0  0
    7.4268   -5.8285    8.6502 C   0  0  0  0  0  0  0  0  0  0  0  0
    5.3861   -6.4815    8.7583 H   0  0  0  0  0  0  0  0  0  0  0  0
    8.6632   -5.9868    8.0297 C   0  0  0  0  0  0  0  0  0  0  0  0
    7.3069   -5.0981    9.4452 H   0  0  0  0  0  0  0  0  0  0  0  0
    9.7791   -7.0537    6.5307 H   0  0  0  0  0  0  0  0  0  0  0  0
    9.5090   -5.3799    8.3397 H   0  0  0  0  0  0  0  0  0  0  0  0
    3.2484  -10.9532    9.0364 C   0  0  0  0  0  0  0  0  0  0  0  0
    4.1446   -9.1353   10.3435 C   0  0  0  0  0  0  0  0  0  0  0  0
    3.3477  -11.7148    8.2676 H   0  0  0  0  0  0  0  0  0  0  0  0
    2.0375  -10.8469    9.7233 C   0  0  0  0  0  0  0  0  0  0  0  0
    2.9338   -9.0299   11.0292 C   0  0  0  0  0  0  0  0  0  0  0  0
    4.9588   -8.4626   10.6041 H   0  0  0  0  0  0  0  0  0  0  0  0
    1.8808   -9.8868   10.7199 C   0  0  0  0  0  0  0  0  0  0  0  0
    2.8153   -8.2817   11.8078 H   0  0  0  0  0  0  0  0  0  0  0  0
    1.2176  -11.5178    9.4828 H   0  0  0  0  0  0  0  0  0  0  0  0
    0.9399   -9.8083   11.2567 H   0  0  0  0  0  0  0  0  0  0  0  0
    7.0376  -13.2732   10.5679 C   0  0  0  0  0  0  0  0  0  0  0  0
    7.9753  -13.5319   10.0597 H   0  0  0  0  0  0  0  0  0  0  0  0
    6.2656  -13.9067   10.1132 H   0  0  0  0  0  0  0  0  0  0  0  0
    7.1505  -13.5842   12.0680 C   0  0  0  0  0  0  0  0  0  0  0  0
    5.8056  -13.4841   12.7847 C   0  0  0  0  0  0  0  0  0  0  0  0
    7.8294  -12.8457   12.5075 H   0  0  0  0  0  0  0  0  0  0  0  0
    7.7984  -14.9644   12.2544 C   0  0  0  0  0  0  0  0  0  0  0  0
    8.6613  -15.0707   11.5851 H   0  0  0  0  0  0  0  0  0  0  0  0
    7.0905  -15.7487   11.9582 H   0  0  0  0  0  0  0  0  0  0  0  0
    8.2393  -15.1717   13.7105 C   0  0  0  0  0  0  0  0  0  0  0  0
    5.8323  -11.5525   10.9374 H   0  0  0  0  0  0  0  0  0  0  0  0
    7.8552  -10.8768   10.7563 C   0  0  0  0  0  0  0  0  0  0  0  0
    9.1260  -10.9515   10.1668 C   0  0  0  0  0  0  0  0  0  0  0  0
    7.6483   -9.9425   11.7839 C   0  0  0  0  0  0  0  0  0  0  0  0
    9.3256  -11.6640    9.3708 H   0  0  0  0  0  0  0  0  0  0  0  0
   10.1609  -10.1184   10.5964 C   0  0  0  0  0  0  0  0  0  0  0  0
    8.6835   -9.1105   12.2125 C   0  0  0  0  0  0  0  0  0  0  0  0
    6.6749   -9.8635   12.2629 H   0  0  0  0  0  0  0  0  0  0  0  0
    9.9399   -9.1993   11.6194 C   0  0  0  0  0  0  0  0  0  0  0  0
    8.5088   -8.3962   13.0121 H   0  0  0  0  0  0  0  0  0  0  0  0
   11.1413  -10.1903   10.1342 H   0  0  0  0  0  0  0  0  0  0  0  0
   10.7470   -8.5547   11.9549 H   0  0  0  0  0  0  0  0  0  0  0  0
    4.7207  -14.3067   12.4464 C   0  0  0  0  0  0  0  0  0  0  0  0
    5.6418  -12.5555   13.8251 C   0  0  0  0  0  0  0  0  0  0  0  0
    4.8098  -15.0395   11.6488 H   0  0  0  0  0  0  0  0  0  0  0  0
    3.5081  -14.2046   13.1311 C   0  0  0  0  0  0  0  0  0  0  0  0
    4.4296  -12.4547   14.5091 C   0  0  0  0  0  0  0  0  0  0  0  0
    6.4655  -11.9059   14.1128 H   0  0  0  0  0  0  0  0  0  0  0  0
    3.3631  -13.2797   14.1623 C   0  0  0  0  0  0  0  0  0  0  0  0
    4.3201  -11.7339   15.3143 H   0  0  0  0  0  0  0  0  0  0  0  0
    2.6773  -14.8501   12.8606 H   0  0  0  0  0  0  0  0  0  0  0  0
    2.4203  -13.2035   14.6961 H   0  0  0  0  0  0  0  0  0  0  0  0
    7.3981  -14.8905   14.3527 H   0  0  0  0  0  0  0  0  0  0  0  0
    9.4351  -14.2968   14.0813 C   0  0  0  0  0  0  0  0  0  0  0  0
    8.5164  -16.6620   13.9529 C   0  0  0  0  0  0  0  0  0  0  0  0
    9.4415  -16.9561   13.4415 H   0  0  0  0  0  0  0  0  0  0  0  0
    7.7205  -17.2723   13.5078 H   0  0  0  0  0  0  0  0  0  0  0  0
    8.6228  -16.9611   15.4548 C   0  0  0  0  0  0  0  0  0  0  0  0
    7.2772  -16.8325   16.1660 C   0  0  0  0  0  0  0  0  0  0  0  0
    9.3098  -16.2262   15.8876 H   0  0  0  0  0  0  0  0  0  0  0  0
    9.2520  -18.3467   15.6540 C   0  0  0  0  0  0  0  0  0  0  0  0
   10.1119  -18.4719   14.9841 H   0  0  0  0  0  0  0  0  0  0  0  0
    8.5337  -19.1256   15.3689 H   0  0  0  0  0  0  0  0  0  0  0  0
    9.6947  -18.5419   17.1106 C   0  0  0  0  0  0  0  0  0  0  0  0
   10.6776  -14.4281   13.4433 C   0  0  0  0  0  0  0  0  0  0  0  0
    9.3029  -13.3359   15.0966 C   0  0  0  0  0  0  0  0  0  0  0  0
   10.8193  -15.1617   12.6540 H   0  0  0  0  0  0  0  0  0  0  0  0
   11.7571  -13.6231   13.8123 C   0  0  0  0  0  0  0  0  0  0  0  0
   10.3825  -12.5316   15.4643 C   0  0  0  0  0  0  0  0  0  0  0  0
    8.3530  -13.2114   15.6115 H   0  0  0  0  0  0  0  0  0  0  0  0
   11.6095  -12.6758   14.8225 C   0  0  0  0  0  0  0  0  0  0  0  0
   10.2647  -11.7942   16.2533 H   0  0  0  0  0  0  0  0  0  0  0  0
   12.7143  -13.7377   13.3117 H   0  0  0  0  0  0  0  0  0  0  0  0
   12.4505  -12.0515   15.1100 H   0  0  0  0  0  0  0  0  0  0  0  0
    6.1833  -17.6477   15.8389 C   0  0  0  0  0  0  0  0  0  0  0  0
    7.1188  -15.8769   17.1826 C   0  0  0  0  0  0  0  0  0  0  0  0
    6.2672  -18.3990   15.0582 H   0  0  0  0  0  0  0  0  0  0  0  0
    4.9668  -17.5115   16.5106 C   0  0  0  0  0  0  0  0  0  0  0  0
    5.9025  -15.7418   17.8533 C   0  0  0  0  0  0  0  0  0  0  0  0
    7.9486  -15.2305   17.4596 H   0  0  0  0  0  0  0  0  0  0  0  0
    4.8268  -16.5594   17.5173 C   0  0  0  0  0  0  0  0  0  0  0  0
    5.7962  -14.9987   18.6384 H   0  0  0  0  0  0  0  0  0  0  0  0
    4.1285  -18.1504   16.2477 H   0  0  0  0  0  0  0  0  0  0  0  0
    3.8802  -16.4552   18.0396 H   0  0  0  0  0  0  0  0  0  0  0  0
    8.8507  -18.2611   17.7495 H   0  0  0  0  0  0  0  0  0  0  0  0
   10.8844  -17.6561   17.4751 C   0  0  0  0  0  0  0  0  0  0  0  0
    9.9819  -20.0289   17.3584 C   0  0  0  0  0  0  0  0  0  0  0  0
   10.9116  -20.3173   16.8519 H   0  0  0  0  0  0  0  0  0  0  0  0
    9.1928  -20.6465   16.9114 H   0  0  0  0  0  0  0  0  0  0  0  0
   10.0841  -20.3239   18.8611 C   0  0  0  0  0  0  0  0  0  0  0  0
    8.7369  -20.1875   19.5676 C   0  0  0  0  0  0  0  0  0  0  0  0
   10.7721  -19.5884   19.2915 H   0  0  0  0  0  0  0  0  0  0  0  0
   10.7084  -21.7113   19.0642 C   0  0  0  0  0  0  0  0  0  0  0  0
   11.5657  -21.8425   18.3920 H   0  0  0  0  0  0  0  0  0  0  0  0
    9.9863  -22.4887   18.7845 H   0  0  0  0  0  0  0  0  0  0  0  0
   11.1559  -21.9043   20.5199 C   0  0  0  0  0  0  0  0  0  0  0  0
   12.1238  -17.7736   16.8282 C   0  0  0  0  0  0  0  0  0  0  0  0
   10.7464  -16.6911   18.4857 C   0  0  0  0  0  0  0  0  0  0  0  0
   12.2693  -18.5086   16.0410 H   0  0  0  0  0  0  0  0  0  0  0  0
   13.1937  -16.9494   17.1824 C   0  0  0  0  0  0  0  0  0  0  0  0
   11.8166  -15.8679   18.8389 C   0  0  0  0  0  0  0  0  0  0  0  0
    9.7981  -16.5757   19.0058 H   0  0  0  0  0  0  0  0  0  0  0  0
   13.0400  -15.9973   18.1871 C   0  0  0  0  0  0  0  0  0  0  0  0
   11.6938  -15.1262   19.6229 H   0  0  0  0  0  0  0  0  0  0  0  0
   14.1477  -17.0514   16.6730 H   0  0  0  0  0  0  0  0  0  0  0  0
   13.8731  -15.3568   18.4616 H   0  0  0  0  0  0  0  0  0  0  0  0
    7.6388  -20.9950   19.2354 C   0  0  0  0  0  0  0  0  0  0  0  0
    8.5785  -19.2261   20.5787 C   0  0  0  0  0  0  0  0  0  0  0  0
    7.7224  -21.7497   18.4579 H   0  0  0  0  0  0  0  0  0  0  0  0
    6.4176  -20.8442   19.8952 C   0  0  0  0  0  0  0  0  0  0  0  0
    7.3573  -19.0763   21.2374 C   0  0  0  0  0  0  0  0  0  0  0  0
    9.4109  -18.5843   20.8583 H   0  0  0  0  0  0  0  0  0  0  0  0
    7.2504  -18.3271   22.0168 H   0  0  0  0  0  0  0  0  0  0  0  0
    6.2771  -19.8852   20.8954 C   0  0  0  0  0  0  0  0  0  0  0  0
    5.5754  -21.4757   19.6270 H   0  0  0  0  0  0  0  0  0  0  0  0
    5.3262  -19.7684   21.4073 H   0  0  0  0  0  0  0  0  0  0  0  0
   10.3100  -21.6292   21.1587 H   0  0  0  0  0  0  0  0  0  0  0  0
   12.3384  -21.0075   20.8808 C   0  0  0  0  0  0  0  0  0  0  0  0
   11.4565  -23.3899   20.7663 C   0  0  0  0  0  0  0  0  0  0  0  0
   12.3905  -23.6691   20.2626 H   0  0  0  0  0  0  0  0  0  0  0  0
   10.6744  -24.0134   20.3151 H   0  0  0  0  0  0  0  0  0  0  0  0
   11.5569  -23.6896   22.2689 C   0  0  0  0  0  0  0  0  0  0  0  0
   10.2090  -23.5467   22.9727 C   0  0  0  0  0  0  0  0  0  0  0  0
   12.2470  -22.9559   22.6989 H   0  0  0  0  0  0  0  0  0  0  0  0
   12.1751  -25.0815   22.4725 C   0  0  0  0  0  0  0  0  0  0  0  0
   13.0279  -25.2181   21.7956 H   0  0  0  0  0  0  0  0  0  0  0  0
   11.4475  -25.8558   22.1987 H   0  0  0  0  0  0  0  0  0  0  0  0
   12.6305  -25.2762   23.9268 C   0  0  0  0  0  0  0  0  0  0  0  0
   13.5752  -21.1099   20.2265 C   0  0  0  0  0  0  0  0  0  0  0  0
   12.1932  -20.0410   21.8890 C   0  0  0  0  0  0  0  0  0  0  0  0
   13.7257  -21.8446   19.4400 H   0  0  0  0  0  0  0  0  0  0  0  0
   14.6350  -20.2682   20.5697 C   0  0  0  0  0  0  0  0  0  0  0  0
   13.2532  -19.2002   22.2310 C   0  0  0  0  0  0  0  0  0  0  0  0
   11.2461  -19.9359   22.4134 H   0  0  0  0  0  0  0  0  0  0  0  0
   14.4737  -19.3136   21.5709 C   0  0  0  0  0  0  0  0  0  0  0  0
   13.1242  -18.4558   23.0116 H   0  0  0  0  0  0  0  0  0  0  0  0
   15.5864  -20.3570   20.0531 H   0  0  0  0  0  0  0  0  0  0  0  0
   15.2984  -18.6581   21.8355 H   0  0  0  0  0  0  0  0  0  0  0  0
    9.1055  -24.3435   22.6324 C   0  0  0  0  0  0  0  0  0  0  0  0
   10.0523  -22.5833   23.9821 C   0  0  0  0  0  0  0  0  0  0  0  0
    9.1871  -25.0983   21.8549 H   0  0  0  0  0  0  0  0  0  0  0  0
    7.8801  -24.1784   23.2810 C   0  0  0  0  0  0  0  0  0  0  0  0
    8.8270  -22.4193   24.6296 C   0  0  0  0  0  0  0  0  0  0  0  0
   10.8885  -21.9485   24.2665 H   0  0  0  0  0  0  0  0  0  0  0  0
    7.7409  -23.2164   24.2784 C   0  0  0  0  0  0  0  0  0  0  0  0
    8.7209  -21.6670   25.4061 H   0  0  0  0  0  0  0  0  0  0  0  0
    7.0331  -24.8000   23.0049 H   0  0  0  0  0  0  0  0  0  0  0  0
    6.7864  -23.0872   24.7803 H   0  0  0  0  0  0  0  0  0  0  0  0
   11.7850  -25.0030   24.5671 H   0  0  0  0  0  0  0  0  0  0  0  0
   13.8096  -24.3725   24.2815 C   0  0  0  0  0  0  0  0  0  0  0  0
   12.9400  -26.7618   24.1760 C   0  0  0  0  0  0  0  0  0  0  0  0
   13.8775  -27.0360   23.6762 H   0  0  0  0  0  0  0  0  0  0  0  0
   12.1628  -27.3895   23.7221 H   0  0  0  0  0  0  0  0  0  0  0  0
   13.0378  -27.0627   25.6806 C   0  0  0  0  0  0  0  0  0  0  0  0
   11.6883  -26.9113   26.3796 C   0  0  0  0  0  0  0  0  0  0  0  0
   13.7288  -26.3284   26.1082 H   0  0  0  0  0  0  0  0  0  0  0  0
   13.6515  -28.4579   25.8955 C   0  0  0  0  0  0  0  0  0  0  0  0
   14.4997  -28.6040   25.2151 H   0  0  0  0  0  0  0  0  0  0  0  0
   12.9190  -29.2316   25.6335 H   0  0  0  0  0  0  0  0  0  0  0  0
   14.1145  -28.6435   27.3514 C   0  0  0  0  0  0  0  0  0  0  0  0
   15.0418  -24.4649   23.6171 C   0  0  0  0  0  0  0  0  0  0  0  0
   13.6631  -23.4042   25.2876 C   0  0  0  0  0  0  0  0  0  0  0  0
   15.1925  -25.2000   22.8310 H   0  0  0  0  0  0  0  0  0  0  0  0
   16.0952  -23.6100   23.9471 C   0  0  0  0  0  0  0  0  0  0  0  0
   14.7167  -22.5502   25.6165 C   0  0  0  0  0  0  0  0  0  0  0  0
   12.7188  -23.3056   25.8184 H   0  0  0  0  0  0  0  0  0  0  0  0
   15.9323  -22.6526   24.9454 C   0  0  0  0  0  0  0  0  0  0  0  0
   14.5862  -21.8030   26.3941 H   0  0  0  0  0  0  0  0  0  0  0  0
   17.0425  -23.6897   23.4213 H   0  0  0  0  0  0  0  0  0  0  0  0
   16.7515  -21.9858   25.1986 H   0  0  0  0  0  0  0  0  0  0  0  0
   10.5804  -27.6989   26.0327 C   0  0  0  0  0  0  0  0  0  0  0  0
   11.5324  -25.9432   27.3847 C   0  0  0  0  0  0  0  0  0  0  0  0
   10.6614  -28.4563   25.2574 H   0  0  0  0  0  0  0  0  0  0  0  0
    9.3507  -27.5188   26.6688 C   0  0  0  0  0  0  0  0  0  0  0  0
   10.3027  -25.7641   28.0198 C   0  0  0  0  0  0  0  0  0  0  0  0
   12.3717  -25.3144   27.6731 H   0  0  0  0  0  0  0  0  0  0  0  0
    9.2117  -26.5510   27.6608 C   0  0  0  0  0  0  0  0  0  0  0  0
   10.1966  -25.0069   28.7914 H   0  0  0  0  0  0  0  0  0  0  0  0
    8.4996  -28.1318   26.3860 H   0  0  0  0  0  0  0  0  0  0  0  0
    8.2533  -26.4089   28.1517 H   0  0  0  0  0  0  0  0  0  0  0  0
   13.2692  -28.3658   27.9900 H   0  0  0  0  0  0  0  0  0  0  0  0
   15.2905  -27.7308   27.6929 C   0  0  0  0  0  0  0  0  0  0  0  0
   14.4335  -30.1266   27.6208 C   0  0  0  0  0  0  0  0  0  0  0  0
   15.3800  -30.3983   27.1371 H   0  0  0  0  0  0  0  0  0  0  0  0
   13.6672  -30.7639   27.1620 H   0  0  0  0  0  0  0  0  0  0  0  0
   14.5138  -30.4163   29.1324 C   0  0  0  0  0  0  0  0  0  0  0  0
   13.1522  -30.2641   29.8065 C   0  0  0  0  0  0  0  0  0  0  0  0
   15.1936  -29.6720   29.5608 H   0  0  0  0  0  0  0  0  0  0  0  0
   15.1348  -31.8067   29.3769 C   0  0  0  0  0  0  0  0  0  0  0  0
   16.0047  -31.9444   28.7224 H   0  0  0  0  0  0  0  0  0  0  0  0
   14.4195  -32.5896   29.0953 H   0  0  0  0  0  0  0  0  0  0  0  0
   15.5586  -31.9933   30.8490 C   0  0  0  0  0  0  0  0  0  0  0  0
   16.5161  -27.8155   27.0155 C   0  0  0  0  0  0  0  0  0  0  0  0
   15.1450  -26.7565   28.6933 C   0  0  0  0  0  0  0  0  0  0  0  0
   16.6651  -28.5542   26.2324 H   0  0  0  0  0  0  0  0  0  0  0  0
   17.5633  -26.9456   27.3254 C   0  0  0  0  0  0  0  0  0  0  0  0
   16.1926  -25.8878   29.0025 C   0  0  0  0  0  0  0  0  0  0  0  0
   14.2052  -26.6627   29.2329 H   0  0  0  0  0  0  0  0  0  0  0  0
   17.4010  -25.9815   28.3173 C   0  0  0  0  0  0  0  0  0  0  0  0
   16.0622  -25.1350   29.7746 H   0  0  0  0  0  0  0  0  0  0  0  0
   18.5045  -27.0175   26.7877 H   0  0  0  0  0  0  0  0  0  0  0  0
   18.2146  -25.3019   28.5538 H   0  0  0  0  0  0  0  0  0  0  0  0
   12.0553  -31.0632   29.4510 C   0  0  0  0  0  0  0  0  0  0  0  0
   12.9706  -29.2774   30.7887 C   0  0  0  0  0  0  0  0  0  0  0  0
   12.1557  -31.8339   28.6913 H   0  0  0  0  0  0  0  0  0  0  0  0
   10.8107  -30.8746   30.0552 C   0  0  0  0  0  0  0  0  0  0  0  0
   11.7263  -29.0898   31.3919 C   0  0  0  0  0  0  0  0  0  0  0  0
   13.8006  -28.6380   31.0814 H   0  0  0  0  0  0  0  0  0  0  0  0
   10.6461  -29.8873   31.0237 C   0  0  0  0  0  0  0  0  0  0  0  0
   11.5999  -28.3164   32.1441 H   0  0  0  0  0  0  0  0  0  0  0  0
    9.9677  -31.4950   29.7643 H   0  0  0  0  0  0  0  0  0  0  0  0
    9.6758  -29.7372   31.4882 H   0  0  0  0  0  0  0  0  0  0  0  0
   15.9400  -33.4663   31.1145 C   0  0  0  0  0  0  0  0  0  0  0  0
   16.8990  -33.6945   30.6324 H   0  0  0  0  0  0  0  0  0  0  0  0
   15.2025  -34.1290   30.6445 H   0  0  0  0  0  0  0  0  0  0  0  0
   16.0320  -33.7779   32.6253 C   0  0  0  0  0  0  0  0  0  0  0  0
   14.6734  -33.6381   33.3076 C   0  0  0  0  0  0  0  0  0  0  0  0
   16.7139  -33.0378   33.0580 H   0  0  0  0  0  0  0  0  0  0  0  0
   16.6530  -35.1757   32.8542 C   0  0  0  0  0  0  0  0  0  0  0  0
   17.5057  -35.3156   32.1780 H   0  0  0  0  0  0  0  0  0  0  0  0
   15.9255  -35.9514   32.5835 H   0  0  0  0  0  0  0  0  0  0  0  0
   17.1106  -35.3817   34.3197 C   0  0  0  0  0  0  0  0  0  0  0  0
   14.6792  -31.7633   31.4604 H   0  0  0  0  0  0  0  0  0  0  0  0
   16.6791  -31.0322   31.2380 C   0  0  0  0  0  0  0  0  0  0  0  0
   17.9257  -31.0479   30.5944 C   0  0  0  0  0  0  0  0  0  0  0  0
   16.4566  -30.0774   32.2428 C   0  0  0  0  0  0  0  0  0  0  0  0
   18.1330  -31.7688   29.8079 H   0  0  0  0  0  0  0  0  0  0  0  0
   18.9173  -30.1280   30.9399 C   0  0  0  0  0  0  0  0  0  0  0  0
   17.4488  -29.1588   32.5878 C   0  0  0  0  0  0  0  0  0  0  0  0
   15.4978  -30.0363   32.7551 H   0  0  0  0  0  0  0  0  0  0  0  0
   18.6783  -29.1830   31.9347 C   0  0  0  0  0  0  0  0  0  0  0  0
   17.2582  -28.4202   33.3611 H   0  0  0  0  0  0  0  0  0  0  0  0
   19.8745  -30.1448   30.4263 H   0  0  0  0  0  0  0  0  0  0  0  0
   19.4482  -28.4633   32.1974 H   0  0  0  0  0  0  0  0  0  0  0  0
   13.5699  -34.4170   32.9268 C   0  0  0  0  0  0  0  0  0  0  0  0
   14.4991  -32.6797   34.3181 C   0  0  0  0  0  0  0  0  0  0  0  0
   13.6649  -35.1656   32.1446 H   0  0  0  0  0  0  0  0  0  0  0  0
   12.3251  -34.2331   33.5315 C   0  0  0  0  0  0  0  0  0  0  0  0
   13.2543  -32.4974   34.9223 C   0  0  0  0  0  0  0  0  0  0  0  0
   15.3339  -32.0562   34.6304 H   0  0  0  0  0  0  0  0  0  0  0  0
   12.1670  -33.2722   34.5269 C   0  0  0  0  0  0  0  0  0  0  0  0
   13.1325  -31.7442   35.6956 H   0  0  0  0  0  0  0  0  0  0  0  0
   11.4765  -34.8351   33.2186 H   0  0  0  0  0  0  0  0  0  0  0  0
   11.1960  -33.1243   34.9909 H   0  0  0  0  0  0  0  0  0  0  0  0
   16.2526  -35.1280   34.9512 H   0  0  0  0  0  0  0  0  0  0  0  0
   18.2631  -34.4489   34.6772 C   0  0  0  0  0  0  0  0  0  0  0  0
   17.4624  -36.8662   34.5762 C   0  0  0  0  0  0  0  0  0  0  0  0
   18.4286  -37.1110   34.1169 H   0  0  0  0  0  0  0  0  0  0  0  0
   16.7240  -37.5032   34.0721 H   0  0  0  0  0  0  0  0  0  0  0  0
   17.5026  -37.2340   36.0794 C   0  0  0  0  0  0  0  0  0  0  0  0
   16.1535  -37.0257   36.7541 C   0  0  0  0  0  0  0  0  0  0  0  0
   18.2461  -36.5923   36.5697 H   0  0  0  0  0  0  0  0  0  0  0  0
   17.9842  -38.6773   36.2607 C   0  0  0  0  0  0  0  0  0  0  0  0
   18.9942  -38.7985   35.8543 H   0  0  0  0  0  0  0  0  0  0  0  0
   17.3323  -39.3941   35.7498 H   0  0  0  0  0  0  0  0  0  0  0  0
   18.0151  -38.9494   37.3215 H   0  0  0  0  0  0  0  0  0  0  0  0
   19.4853  -34.4871   33.9883 C   0  0  0  0  0  0  0  0  0  0  0  0
   18.0888  -33.4806   35.6779 C   0  0  0  0  0  0  0  0  0  0  0  0
   19.6533  -35.2164   33.1998 H   0  0  0  0  0  0  0  0  0  0  0  0
   20.4980  -33.5720   34.2814 C   0  0  0  0  0  0  0  0  0  0  0  0
   19.1020  -32.5660   35.9698 C   0  0  0  0  0  0  0  0  0  0  0  0
   17.1479  -33.4177   36.2206 H   0  0  0  0  0  0  0  0  0  0  0  0
   20.3050  -32.6097   35.2693 C   0  0  0  0  0  0  0  0  0  0  0  0
   18.9461  -31.8100   36.7344 H   0  0  0  0  0  0  0  0  0  0  0  0
   21.4327  -33.6022   33.7280 H   0  0  0  0  0  0  0  0  0  0  0  0
   21.0883  -31.8891   35.4870 H   0  0  0  0  0  0  0  0  0  0  0  0
   15.0033  -37.7102   36.3306 C   0  0  0  0  0  0  0  0  0  0  0  0
   16.0299  -36.0833   37.7864 C   0  0  0  0  0  0  0  0  0  0  0  0
   15.0594  -38.4417   35.5283 H   0  0  0  0  0  0  0  0  0  0  0  0
   13.7620  -37.4468   36.9124 C   0  0  0  0  0  0  0  0  0  0  0  0
   14.7874  -35.8199   38.3662 C   0  0  0  0  0  0  0  0  0  0  0  0
   16.9003  -35.5290   38.1306 H   0  0  0  0  0  0  0  0  0  0  0  0
   13.6536  -36.4993   37.9271 C   0  0  0  0  0  0  0  0  0  0  0  0
   14.7033  -35.0754   39.1530 H   0  0  0  0  0  0  0  0  0  0  0  0
   12.8776  -37.9732   36.5640 H   0  0  0  0  0  0  0  0  0  0  0  0
   12.6851  -36.2860   38.3705 H   0  0  0  0  0  0  0  0  0  0  0  0
  1  2  2  0  0  0  0
  1  6  1  0  0  0  0
  1  7  1  0  0  0  0
  2  3  1  0  0  0  0
  3  4  2  0  0  0  0
  4  5  1  0  0  0  0
  5  6  2  0  0  0  0
  7  8  1  0  0  0  0
  9  8  1  0  0  0  0
 10  8  1  0  0  0  0
 11  8  1  0  0  0  0
 12 10  1  0  0  0  0
 13 10  1  0  0  0  0
 14 10  1  0  0  0  0
 15 14  1  0  0  0  0
 16 14  1  0  0  0  0
 17 14  1  0  0  0  0
 18 17  1  0  0  0  0
 19 17  1  0  0  0  0
 20 17  1  0  0  0  0
 21  7  1  0  0  0  0
 22  7  1  0  0  0  0
 23 13  2  0  0  0  0
 24 13  1  0  0  0  0
 25 23  1  0  0  0  0
 26 23  1  0  0  0  0
 26 29  2  0  0  0  0
 27 24  2  0  0  0  0
 28 24  1  0  0  0  0
 29 27  1  0  0  0  0
 30 27  1  0  0  0  0
 31 26  1  0  0  0  0
 32 29  1  0  0  0  0
 33  6  1  0  0  0  0
 34  5  1  0  0  0  0
 35  4  1  0  0  0  0
 36  3  1  0  0  0  0
 37  2  1  0  0  0  0
 38 18  2  0  0  0  0
 39 18  1  0  0  0  0
 40 38  1  0  0  0  0
 41 38  1  0  0  0  0
 42 39  2  0  0  0  0
 43 39  1  0  0  0  0
 44 42  1  0  0  0  0
 44 41  2  0  0  0  0
 45 42  1  0  0  0  0
 46 41  1  0  0  0  0
 47 44  1  0  0  0  0
 48 20  1  0  0  0  0
 49 20  1  0  0  0  0
 50 20  1  0  0  0  0
 51 50  1  0  0  0  0
 52 50  1  0  0  0  0
 53 50  1  0  0  0  0
 54 53  1  0  0  0  0
 55 53  1  0  0  0  0
 56 53  1  0  0  0  0
 57 56  1  0  0  0  0
 58 56  1  0  0  0  0
 59 56  1  0  0  0  0
 60 59  1  0  0  0  0
 61 59  1  0  0  0  0
 62 59  1  0  0  0  0
 63 52  2  0  0  0  0
 64 63  1  0  0  0  0
 65 52  1  0  0  0  0
 66 63  1  0  0  0  0
 67 65  2  0  0  0  0
 68 65  1  0  0  0  0
 69 67  1  0  0  0  0
 69 64  2  0  0  0  0
 70 67  1  0  0  0  0
 71 64  1  0  0  0  0
 72 69  1  0  0  0  0
 73 57  2  0  0  0  0
 74 57  1  0  0  0  0
 75 73  1  0  0  0  0
 76 73  1  0  0  0  0
 77 74  2  0  0  0  0
 78 74  1  0  0  0  0
 79 77  1  0  0  0  0
 79 76  2  0  0  0  0
 80 77  1  0  0  0  0
 81 76  1  0  0  0  0
 82 79  1  0  0  0  0
 83 62  1  0  0  0  0
 84 62  1  0  0  0  0
 85 62  1  0  0  0  0
 86 85  1  0  0  0  0
 87 85  1  0  0  0  0
 88 85  1  0  0  0  0
 89 88  1  0  0  0  0
 90 88  1  0  0  0  0
 91 88  1  0  0  0  0
 92 91  1  0  0  0  0
 93 91  1  0  0  0  0
 94 91  1  0  0  0  0
 95 84  2  0  0  0  0
 96 84  1  0  0  0  0
 97 95  1  0  0  0  0
 98 95  1  0  0  0  0
 99 96  2  0  0  0  0
100 96  1  0  0  0  0
101 99  1  0  0  0  0
101 98  2  0  0  0  0
102 99  1  0  0  0  0
103 98  1  0  0  0  0
104101  1  0  0  0  0
105 89  2  0  0  0  0
106 89  1  0  0  0  0
107105  1  0  0  0  0
108105  1  0  0  0  0
109106  2  0  0  0  0
110106  1  0  0  0  0
111109  1  0  0  0  0
111108  2  0  0  0  0
112109  1  0  0  0  0
113108  1  0  0  0  0
114111  1  0  0  0  0
115 94  1  0  0  0  0
116115  1  0  0  0  0
117115  1  0  0  0  0
118115  1  0  0  0  0
119118  1  0  0  0  0
120118  1  0  0  0  0
121118  1  0  0  0  0
122121  1  0  0  0  0
123121  1  0  0  0  0
124121  1  0  0  0  0
125 94  1  0  0  0  0
126 94  1  0  0  0  0
127126  2  0  0  0  0
128126  1  0  0  0  0
129127  1  0  0  0  0
130127  1  0  0  0  0
131128  2  0  0  0  0
132128  1  0  0  0  0
133131  1  0  0  0  0
133130  2  0  0  0  0
134131  1  0  0  0  0
135130  1  0  0  0  0
136133  1  0  0  0  0
137119  2  0  0  0  0
138119  1  0  0  0  0
139137  1  0  0  0  0
140137  1  0  0  0  0
141138  2  0  0  0  0
142138  1  0  0  0  0
143141  1  0  0  0  0
143140  2  0  0  0  0
144141  1  0  0  0  0
145140  1  0  0  0  0
146143  1  0  0  0  0
147124  1  0  0  0  0
148124  1  0  0  0  0
149124  1  0  0  0  0
150149  1  0  0  0  0
151149  1  0  0  0  0
152149  1  0  0  0  0
153152  1  0  0  0  0
154152  1  0  0  0  0
155152  1  0  0  0  0
156155  1  0  0  0  0
157155  1  0  0  0  0
158155  1  0  0  0  0
159148  2  0  0  0  0
160148  1  0  0  0  0
161159  1  0  0  0  0
162159  1  0  0  0  0
163160  2  0  0  0  0
164160  1  0  0  0  0
165163  1  0  0  0  0
165162  2  0  0  0  0
166163  1  0  0  0  0
167162  1  0  0  0  0
168165  1  0  0  0  0
169153  2  0  0  0  0
170153  1  0  0  0  0
171169  1  0  0  0  0
172169  1  0  0  0  0
173170  2  0  0  0  0
174170  1  0  0  0  0
175173  1  0  0  0  0
175172  2  0  0  0  0
176173  1  0  0  0  0
177172  1  0  0  0  0
178175  1  0  0  0  0
179158  1  0  0  0  0
180158  1  0  0  0  0
181158  1  0  0  0  0
182181  1  0  0  0  0
183181  1  0  0  0  0
184181  1  0  0  0  0
185184  1  0  0  0  0
186184  1  0  0  0  0
187184  1  0  0  0  0
188187  1  0  0  0  0
189187  1  0  0  0  0
190187  1  0  0  0  0
191180  2  0  0  0  0
192180  1  0  0  0  0
193191  1  0  0  0  0
194191  1  0  0  0  0
195192  2  0  0  0  0
196192  1  0  0  0  0
197195  1  0  0  0  0
197194  2  0  0  0  0
198195  1  0  0  0  0
199194  1  0  0  0  0
200197  1  0  0  0  0
201185  2  0  0  0  0
202185  1  0  0  0  0
203201  1  0  0  0  0
204201  1  0  0  0  0
205202  2  0  0  0  0
206202  1  0  0  0  0
207205  1  0  0  0  0
208205  1  0  0  0  0
208204  2  0  0  0  0
209204  1  0  0  0  0
210208  1  0  0  0  0
211190  1  0  0  0  0
212190  1  0  0  0  0
213190  1  0  0  0  0
214213  1  0  0  0  0
215213  1  0  0  0  0
216213  1  0  0  0  0
217216  1  0  0  0  0
218216  1  0  0  0  0
219216  1  0  0  0  0
220219  1  0  0  0  0
221219  1  0  0  0  0
222219  1  0  0  0  0
223212  2  0  0  0  0
224212  1  0  0  0  0
225223  1  0  0  0  0
226223  1  0  0  0  0
227224  2  0  0  0  0
228224  1  0  0  0  0
229227  1  0  0  0  0
229226  2  0  0  0  0
230227  1  0  0  0  0
231226  1  0  0  0  0
232229  1  0  0  0  0
233217  2  0  0  0  0
234217  1  0  0  0  0
235233  1  0  0  0  0
236233  1  0  0  0  0
237234  2  0  0  0  0
238234  1  0  0  0  0
239237  1  0  0  0  0
239236  2  0  0  0  0
240237  1  0  0  0  0
241236  1  0  0  0  0
242239  1  0  0  0  0
243222  1  0  0  0  0
244222  1  0  0  0  0
245222  1  0  0  0  0
246245  1  0  0  0  0
247245  1  0  0  0  0
248245  1  0  0  0  0
249248  1  0  0  0  0
250248  1  0  0  0  0
251248  1  0  0  0  0
252251  1  0  0  0  0
253251  1  0  0  0  0
254251  1  0  0  0  0
255244  2  0  0  0  0
256244  1  0  0  0  0
257255  1  0  0  0  0
258255  1  0  0  0  0
259256  2  0  0  0  0
260256  1  0  0  0  0
261259  1  0  0  0  0
261258  2  0  0  0  0
262259  1  0  0  0  0
263258  1  0  0  0  0
264261  1  0  0  0  0
265249  2  0  0  0  0
266249  1  0  0  0  0
267265  1  0  0  0  0
268265  1  0  0  0  0
269266  2  0  0  0  0
270266  1  0  0  0  0
271269  1  0  0  0  0
271268  2  0  0  0  0
272269  1  0  0  0  0
273268  1  0  0  0  0
274271  1  0  0  0  0
275254  1  0  0  0  0
276254  1  0  0  0  0
277254  1  0  0  0  0
278277  1  0  0  0  0
279277  1  0  0  0  0
280277  1  0  0  0  0
281280  1  0  0  0  0
282280  1  0  0  0  0
283280  1  0  0  0  0
284283  1  0  0  0  0
285283  1  0  0  0  0
286283  1  0  0  0  0
287276  2  0  0  0  0
288276  1  0  0  0  0
289287  1  0  0  0  0
290287  1  0  0  0  0
291288  2  0  0  0  0
292288  1  0  0  0  0
293291  1  0  0  0  0
293290  2  0  0  0  0
294291  1  0  0  0  0
295290  1  0  0  0  0
296293  1  0  0  0  0
297281  2  0  0  0  0
298281  1  0  0  0  0
299297  1  0  0  0  0
300297  1  0  0  0  0
301298  2  0  0  0  0
302298  1  0  0  0  0
303301  1  0  0  0  0
303300  2  0  0  0  0
304301  1  0  0  0  0
305300  1  0  0  0  0
306303  1  0  0  0  0
307286  1  0  0  0  0
308307  1  0  0  0  0
309307  1  0  0  0  0
310307  1  0  0  0  0
311310  1  0  0  0  0
312310  1  0  0  0  0
313310  1  0  0  0  0
314313  1  0  0  0  0
315313  1  0  0  0  0
316313  1  0  0  0  0
317286  1  0  0  0  0
318286  1  0  0  0  0
319318  2  0  0  0  0
320318  1  0  0  0  0
321319  1  0  0  0  0
322319  1  0  0  0  0
323320  2  0  0  0  0
324320  1  0  0  0  0
325323  1  0  0  0  0
325322  2  0  0  0  0
326323  1  0  0  0  0
327322  1  0  0  0  0
328325  1  0  0  0  0
329311  2  0  0  0  0
330311  1  0  0  0  0
331329  1  0  0  0  0
332329  1  0  0  0  0
333330  2  0  0  0  0
334330  1  0  0  0  0
335333  1  0  0  0  0
335332  2  0  0  0  0
336333  1  0  0  0  0
337332  1  0  0  0  0
338335  1  0  0  0  0
339316  1  0  0  0  0
340316  1  0  0  0  0
341316  1  0  0  0  0
342341  1  0  0  0  0
343341  1  0  0  0  0
344341  1  0  0  0  0
345344  1  0  0  0  0
346344  1  0  0  0  0
347344  1  0  0  0  0
348347  1  0  0  0  0
349347  1  0  0  0  0
350347  1  0  0  0  0
351340  2  0  0  0  0
352340  1  0  0  0  0
353351  1  0  0  0  0
354351  1  0  0  0  0
355352  2  0  0  0  0
356352  1  0  0  0  0
357355  1  0  0  0  0
357354  2  0  0  0  0
358355  1  0  0  0  0
359354  1  0  0  0  0
360357  1  0  0  0  0
361345  2  0  0  0  0
362345  1  0  0  0  0
363361  1  0  0  0  0
364361  1  0  0  0  0
365362  2  0  0  0  0
366362  1  0  0  0  0
367365  1  0  0  0  0
367364  2  0  0  0  0
368365  1  0  0  0  0
369364  1  0  0  0  0
370367  1  0  0  0  0
M  END
