
 OpenBabel06181216483D

 14 13  0  0  0  0  0  0  0  0999 V2000
    0.0326    0.0034   -0.0148 C   0  0  0  0  0  0  0  0  0  0  0  0
    1.5316    0.2575   -0.0569 C   0  0  0  0  0  0  0  0  0  0  0  0
   -0.4097    0.6517    0.7515 H   0  0  0  0  0  0  0  0  0  0  0  0
   -0.4133    0.2948   -0.9722 H   0  0  0  0  0  0  0  0  0  0  0  0
   -0.3301   -1.4464    0.3091 C   0  0  0  0  0  0  0  0  0  0  0  0
    2.0098   -0.0529    0.8770 H   0  0  0  0  0  0  0  0  0  0  0  0
    1.7273    1.3253   -0.1995 H   0  0  0  0  0  0  0  0  0  0  0  0
    2.0056   -0.2789   -0.8844 H   0  0  0  0  0  0  0  0  0  0  0  0
    0.1016   -1.7325    1.2746 H   0  0  0  0  0  0  0  0  0  0  0  0
    0.1164   -2.4349   -0.7572 C   0  0  0  0  0  0  0  0  0  0  0  0
   -1.4196   -1.5167    0.4154 H   0  0  0  0  0  0  0  0  0  0  0  0
    1.2074   -2.4891   -0.8212 H   0  0  0  0  0  0  0  0  0  0  0  0
   -0.2754   -2.1571   -1.7403 H   0  0  0  0  0  0  0  0  0  0  0  0
   -0.2511   -3.4379   -0.5167 H   0  0  0  0  0  0  0  0  0  0  0  0
  1  2  1  0  0  0  0
  1  3  1  0  0  0  0
  1  4  1  0  0  0  0
  1  5  1  0  0  0  0
  6  2  1  0  0  0  0
  7  2  1  0  0  0  0
  8  2  1  0  0  0  0
  9  5  1  0  0  0  0
 10  5  1  0  0  0  0
 11  5  1  0  0  0  0
 12 10  1  0  0  0  0
 13 10  1  0  0  0  0
 14 10  1  0  0  0  0
M  END
