
 OpenBabel10311214233D

257256  0  0  0  0  0  0  0  0999 V2000
    6.0670   -0.1865   -1.6600 C   0  0  0  0  0  0  0  0  0  0  0  0
    4.7784    0.2083   -0.8076 C   0  0  0  0  0  0  0  0  0  0  0  0
    3.3556   -0.1768   -1.4342 C   0  0  0  0  0  0  0  0  0  0  0  0
    2.1089   -0.0516   -0.4434 C   0  0  0  0  0  0  0  0  0  0  0  0
    0.6487   -0.1566   -1.0915 C   0  0  0  0  0  0  0  0  0  0  0  0
   -0.5688    0.2122   -0.1188 C   0  0  0  0  0  0  0  0  0  0  0  0
   -2.0401   -0.1361   -0.6380 C   0  0  0  0  0  0  0  0  0  0  0  0
   -3.1952   -0.0553    0.4627 C   0  0  0  0  0  0  0  0  0  0  0  0
   -4.7055   -0.1047   -0.0632 C   0  0  0  0  0  0  0  0  0  0  0  0
   -5.8309    0.2232    1.0275 C   0  0  0  0  0  0  0  0  0  0  0  0
    6.1221    0.4337   -2.5593 H   0  0  0  0  0  0  0  0  0  0  0  0
    7.4731   -0.0562   -0.9064 C   0  0  0  0  0  0  0  0  0  0  0  0
    5.9245   -1.2135   -2.0077 H   0  0  0  0  0  0  0  0  0  0  0  0
    4.9017   -0.4686    0.5902 C   0  0  0  0  0  0  0  0  0  0  0  0
    4.8038    1.6594   -0.5950 O   0  0  0  0  0  0  0  0  0  0  0  0
    3.1447    0.4516   -2.3040 H   0  0  0  0  0  0  0  0  0  0  0  0
    3.4325   -1.2019   -1.8089 H   0  0  0  0  0  0  0  0  0  0  0  0
    2.2402   -1.1079    0.5663 O   0  0  0  0  0  0  0  0  0  0  0  0
    2.2053    1.3169    0.2936 C   0  0  0  0  0  0  0  0  0  0  0  0
   -0.5237    1.6535    0.1519 O   0  0  0  0  0  0  0  0  0  0  0  0
   -2.9946   -1.1706    1.3948 O   0  0  0  0  0  0  0  0  0  0  0  0
   -3.0181    1.2659    1.2710 C   0  0  0  0  0  0  0  0  0  0  0  0
   -4.7830    0.5957   -0.8996 H   0  0  0  0  0  0  0  0  0  0  0  0
   -4.9251   -1.0955   -0.4709 H   0  0  0  0  0  0  0  0  0  0  0  0
   -5.7272    1.6410    1.3902 O   0  0  0  0  0  0  0  0  0  0  0  0
   -3.0907   -2.4709    1.0000 C   0  0  0  0  0  0  0  0  0  0  0  0
   -0.6884    2.5805   -0.8323 C   0  0  0  0  0  0  0  0  0  0  0  0
    2.1848   -2.4304    0.2412 C   0  0  0  0  0  0  0  0  0  0  0  0
    4.7067    2.5394   -1.6305 C   0  0  0  0  0  0  0  0  0  0  0  0
   -2.8178   -3.3723    2.1664 C   0  0  0  0  0  0  0  0  0  0  0  0
    2.0198   -2.8973   -0.8749 O   0  0  0  0  0  0  0  0  0  0  0  0
    2.3536   -3.2599    1.4793 C   0  0  0  0  0  0  0  0  0  0  0  0
   -0.8707    2.3534   -2.0164 O   0  0  0  0  0  0  0  0  0  0  0  0
   -0.6129    3.9571   -0.2433 C   0  0  0  0  0  0  0  0  0  0  0  0
    4.6034    2.2566   -2.8134 O   0  0  0  0  0  0  0  0  0  0  0  0
    4.7405    3.9424   -1.1061 C   0  0  0  0  0  0  0  0  0  0  0  0
    0.3610    4.1065    0.2292 H   0  0  0  0  0  0  0  0  0  0  0  0
   -1.4179    4.0954    0.4826 H   0  0  0  0  0  0  0  0  0  0  0  0
   -0.7302    4.6982   -1.0390 H   0  0  0  0  0  0  0  0  0  0  0  0
    5.6883    4.1250   -0.5942 H   0  0  0  0  0  0  0  0  0  0  0  0
    3.8984    4.1064   -0.4292 H   0  0  0  0  0  0  0  0  0  0  0  0
    4.6551    4.6428   -1.9420 H   0  0  0  0  0  0  0  0  0  0  0  0
    1.5514   -3.0384    2.1884 H   0  0  0  0  0  0  0  0  0  0  0  0
    3.3300   -3.0626    1.9297 H   0  0  0  0  0  0  0  0  0  0  0  0
    2.3000   -4.3206    1.2150 H   0  0  0  0  0  0  0  0  0  0  0  0
   -3.5528   -3.1934    2.9550 H   0  0  0  0  0  0  0  0  0  0  0  0
   -1.8049   -3.2021    2.5394 H   0  0  0  0  0  0  0  0  0  0  0  0
   -2.8994   -4.4147    1.8452 H   0  0  0  0  0  0  0  0  0  0  0  0
   -2.0037   -1.1406   -1.0687 H   0  0  0  0  0  0  0  0  0  0  0  0
   -2.3196    0.5374   -1.4530 H   0  0  0  0  0  0  0  0  0  0  0  0
   -3.3591   -2.8682   -0.1217 O   0  0  0  0  0  0  0  0  0  0  0  0
    0.4759   -1.1726   -1.4585 H   0  0  0  0  0  0  0  0  0  0  0  0
    0.6338    0.4943   -1.9706 H   0  0  0  0  0  0  0  0  0  0  0  0
   -0.3354   -0.5180    1.2388 C   0  0  0  0  0  0  0  0  0  0  0  0
    7.5513   -1.0949    0.1252 O   0  0  0  0  0  0  0  0  0  0  0  0
    7.5243    1.3158   -0.1769 C   0  0  0  0  0  0  0  0  0  0  0  0
    8.7639   -0.1753   -1.8243 C   0  0  0  0  0  0  0  0  0  0  0  0
   10.1612    0.2037   -1.1474 C   0  0  0  0  0  0  0  0  0  0  0  0
    7.5205   -2.4212   -0.1843 C   0  0  0  0  0  0  0  0  0  0  0  0
    7.5899   -3.2353    1.0717 C   0  0  0  0  0  0  0  0  0  0  0  0
    7.4350   -2.9019   -1.3032 O   0  0  0  0  0  0  0  0  0  0  0  0
    6.7038   -3.0495    1.6834 H   0  0  0  0  0  0  0  0  0  0  0  0
    8.4992   -2.9894    1.6254 H   0  0  0  0  0  0  0  0  0  0  0  0
    7.6194   -4.2977    0.8127 H   0  0  0  0  0  0  0  0  0  0  0  0
    8.5974    0.4541   -2.7034 H   0  0  0  0  0  0  0  0  0  0  0  0
    8.8528   -1.1988   -2.2010 H   0  0  0  0  0  0  0  0  0  0  0  0
   10.2743   -0.4933    0.2330 C   0  0  0  0  0  0  0  0  0  0  0  0
   10.1997    1.6442   -0.8871 O   0  0  0  0  0  0  0  0  0  0  0  0
   11.4258   -0.1889   -2.0085 C   0  0  0  0  0  0  0  0  0  0  0  0
   11.4428    0.4203   -2.9176 H   0  0  0  0  0  0  0  0  0  0  0  0
   11.2806   -1.2191   -2.3476 H   0  0  0  0  0  0  0  0  0  0  0  0
   12.8580   -0.0542   -1.3233 C   0  0  0  0  0  0  0  0  0  0  0  0
   13.0146   -1.0588   -0.2716 O   0  0  0  0  0  0  0  0  0  0  0  0
   12.9857    1.3141   -0.6154 C   0  0  0  0  0  0  0  0  0  0  0  0
   14.0252   -0.2038   -2.3643 C   0  0  0  0  0  0  0  0  0  0  0  0
   13.7748    0.4297   -3.2219 H   0  0  0  0  0  0  0  0  0  0  0  0
   14.0204   -1.2285   -2.7501 H   0  0  0  0  0  0  0  0  0  0  0  0
   15.5091    0.1207   -1.9125 C   0  0  0  0  0  0  0  0  0  0  0  0
   10.1124    2.5615   -1.8906 C   0  0  0  0  0  0  0  0  0  0  0  0
   10.0114    2.3242   -3.0822 O   0  0  0  0  0  0  0  0  0  0  0  0
   10.1433    3.9442   -1.3131 C   0  0  0  0  0  0  0  0  0  0  0  0
   11.0717    4.0949   -0.7573 H   0  0  0  0  0  0  0  0  0  0  0  0
    9.2766    4.0948   -0.6649 H   0  0  0  0  0  0  0  0  0  0  0  0
   10.1021    4.6756   -2.1255 H   0  0  0  0  0  0  0  0  0  0  0  0
   12.9476   -2.3939   -0.5306 C   0  0  0  0  0  0  0  0  0  0  0  0
   13.1035   -3.1643    0.7452 C   0  0  0  0  0  0  0  0  0  0  0  0
   12.2560   -2.9621    1.4047 H   0  0  0  0  0  0  0  0  0  0  0  0
   14.0441   -2.8948    1.2314 H   0  0  0  0  0  0  0  0  0  0  0  0
   13.1253   -4.2345    0.5203 H   0  0  0  0  0  0  0  0  0  0  0  0
   12.7650   -2.9120   -1.6194 O   0  0  0  0  0  0  0  0  0  0  0  0
   15.8489   -0.5594   -0.5730 C   0  0  0  0  0  0  0  0  0  0  0  0
   15.6702    1.5461   -1.6461 O   0  0  0  0  0  0  0  0  0  0  0  0
   16.5099   -0.3695   -3.0123 C   0  0  0  0  0  0  0  0  0  0  0  0
   16.2765    0.1505   -3.9489 H   0  0  0  0  0  0  0  0  0  0  0  0
   16.2784   -1.4243   -3.2045 H   0  0  0  0  0  0  0  0  0  0  0  0
   18.0516   -0.2476   -2.7913 C   0  0  0  0  0  0  0  0  0  0  0  0
   18.5453   -1.0009   -1.6489 O   0  0  0  0  0  0  0  0  0  0  0  0
   18.4896    1.1968   -2.5015 C   0  0  0  0  0  0  0  0  0  0  0  0
   18.7990   -0.6992   -4.0599 C   0  0  0  0  0  0  0  0  0  0  0  0
   15.4577    2.4962   -2.5943 C   0  0  0  0  0  0  0  0  0  0  0  0
   18.4275   -2.3512   -1.5707 C   0  0  0  0  0  0  0  0  0  0  0  0
   15.1737    2.2997   -3.7647 O   0  0  0  0  0  0  0  0  0  0  0  0
   15.5964    3.8568   -1.9802 C   0  0  0  0  0  0  0  0  0  0  0  0
   17.8985   -3.0799   -2.3946 O   0  0  0  0  0  0  0  0  0  0  0  0
   18.9822   -2.8270   -0.2610 C   0  0  0  0  0  0  0  0  0  0  0  0
   18.2925   -2.5666    0.5461 H   0  0  0  0  0  0  0  0  0  0  0  0
   19.9628   -2.3783   -0.0818 H   0  0  0  0  0  0  0  0  0  0  0  0
   19.1061   -3.9129   -0.2914 H   0  0  0  0  0  0  0  0  0  0  0  0
   16.5680    3.9479   -1.4883 H   0  0  0  0  0  0  0  0  0  0  0  0
   14.7874    4.0228   -1.2641 H   0  0  0  0  0  0  0  0  0  0  0  0
   15.5343    4.6169   -2.7639 H   0  0  0  0  0  0  0  0  0  0  0  0
   18.6041   -0.0219   -4.8983 H   0  0  0  0  0  0  0  0  0  0  0  0
   18.4997   -1.7039   -4.3726 H   0  0  0  0  0  0  0  0  0  0  0  0
   19.8803   -0.7340   -3.8840 H   0  0  0  0  0  0  0  0  0  0  0  0
   -5.9373    2.6385    0.4867 C   0  0  0  0  0  0  0  0  0  0  0  0
   -6.2154    2.4993   -0.6928 O   0  0  0  0  0  0  0  0  0  0  0  0
   -5.7732    3.9684    1.1592 C   0  0  0  0  0  0  0  0  0  0  0  0
   -4.7649    4.0549    1.5720 H   0  0  0  0  0  0  0  0  0  0  0  0
   -6.5217    4.0817    1.9471 H   0  0  0  0  0  0  0  0  0  0  0  0
   -5.9162    4.7658    0.4245 H   0  0  0  0  0  0  0  0  0  0  0  0
   -5.5118   -0.6051    2.3081 C   0  0  0  0  0  0  0  0  0  0  0  0
   -7.3451   -0.0564    0.6075 C   0  0  0  0  0  0  0  0  0  0  0  0
   -7.3722   -1.0348    0.1200 H   0  0  0  0  0  0  0  0  0  0  0  0
   -7.6626    0.6698   -0.1463 H   0  0  0  0  0  0  0  0  0  0  0  0
   -8.4132   -0.0052    1.7965 C   0  0  0  0  0  0  0  0  0  0  0  0
   -8.1313    1.2586    2.6632 C   0  0  0  0  0  0  0  0  0  0  0  0
   -8.1940   -1.1777    2.6503 O   0  0  0  0  0  0  0  0  0  0  0  0
   -9.9519    0.0226    1.3742 C   0  0  0  0  0  0  0  0  0  0  0  0
   -8.3571   -2.4480    2.1857 C   0  0  0  0  0  0  0  0  0  0  0  0
   -8.7050   -2.7680    1.0610 O   0  0  0  0  0  0  0  0  0  0  0  0
   -8.0432   -3.4277    3.2755 C   0  0  0  0  0  0  0  0  0  0  0  0
   -8.7372   -3.2919    4.1083 H   0  0  0  0  0  0  0  0  0  0  0  0
   -7.0107   -3.2955    3.6084 H   0  0  0  0  0  0  0  0  0  0  0  0
   -8.1551   -4.4453    2.8900 H   0  0  0  0  0  0  0  0  0  0  0  0
  -10.2368   -0.9416    0.9435 H   0  0  0  0  0  0  0  0  0  0  0  0
  -10.0559    0.7574    0.5709 H   0  0  0  0  0  0  0  0  0  0  0  0
  -10.9918    0.3467    2.5454 C   0  0  0  0  0  0  0  0  0  0  0  0
  -10.8214    1.7459    2.9494 O   0  0  0  0  0  0  0  0  0  0  0  0
  -10.6361   -0.5327    3.7783 C   0  0  0  0  0  0  0  0  0  0  0  0
  -12.5269    0.1207    2.1995 C   0  0  0  0  0  0  0  0  0  0  0  0
  -12.6091   -0.8492    1.7008 H   0  0  0  0  0  0  0  0  0  0  0  0
  -12.8524    0.8648    1.4664 H   0  0  0  0  0  0  0  0  0  0  0  0
  -13.5463    0.1880    3.4285 C   0  0  0  0  0  0  0  0  0  0  0  0
  -13.2238    1.4380    4.2919 C   0  0  0  0  0  0  0  0  0  0  0  0
  -13.3380   -0.9822    4.2854 O   0  0  0  0  0  0  0  0  0  0  0  0
  -15.0752    0.2461    3.0227 C   0  0  0  0  0  0  0  0  0  0  0  0
  -11.0444    2.7786    2.0891 C   0  0  0  0  0  0  0  0  0  0  0  0
  -11.4014    2.6877    0.9260 O   0  0  0  0  0  0  0  0  0  0  0  0
  -10.7784    4.0799    2.7837 C   0  0  0  0  0  0  0  0  0  0  0  0
   -9.7395    4.1160    3.1208 H   0  0  0  0  0  0  0  0  0  0  0  0
  -11.4616    4.1972    3.6282 H   0  0  0  0  0  0  0  0  0  0  0  0
  -10.9443    4.9039    2.0837 H   0  0  0  0  0  0  0  0  0  0  0  0
  -13.5262   -2.2518    3.8284 C   0  0  0  0  0  0  0  0  0  0  0  0
  -13.8904   -2.5719    2.7087 O   0  0  0  0  0  0  0  0  0  0  0  0
  -13.2099   -3.2325    4.9160 C   0  0  0  0  0  0  0  0  0  0  0  0
  -13.8876   -3.0832    5.7597 H   0  0  0  0  0  0  0  0  0  0  0  0
  -12.1698   -3.1156    5.2305 H   0  0  0  0  0  0  0  0  0  0  0  0
  -13.3441   -4.2493    4.5356 H   0  0  0  0  0  0  0  0  0  0  0  0
  -15.3672   -0.7066    2.5704 H   0  0  0  0  0  0  0  0  0  0  0  0
  -15.1730    0.9936    2.2296 H   0  0  0  0  0  0  0  0  0  0  0  0
  -16.1226    0.5605    4.1821 C   0  0  0  0  0  0  0  0  0  0  0  0
  -15.9736    1.9489    4.6209 O   0  0  0  0  0  0  0  0  0  0  0  0
  -15.8136   -0.3076    5.4261 C   0  0  0  0  0  0  0  0  0  0  0  0
  -17.6168    0.3095    3.7463 C   0  0  0  0  0  0  0  0  0  0  0  0
  -17.6515   -0.6690    3.2561 H   0  0  0  0  0  0  0  0  0  0  0  0
  -17.8884    1.0345    2.9722 H   0  0  0  0  0  0  0  0  0  0  0  0
  -18.7438    0.3664    4.8625 C   0  0  0  0  0  0  0  0  0  0  0  0
  -18.6009    1.6499    5.7078 C   0  0  0  0  0  0  0  0  0  0  0  0
  -18.5866   -0.7411    5.8032 O   0  0  0  0  0  0  0  0  0  0  0  0
  -20.1754    0.3261    4.2242 C   0  0  0  0  0  0  0  0  0  0  0  0
  -16.1624    3.0005    3.7774 C   0  0  0  0  0  0  0  0  0  0  0  0
  -16.4903    2.9382    2.6039 O   0  0  0  0  0  0  0  0  0  0  0  0
  -15.8917    4.2831    4.5035 C   0  0  0  0  0  0  0  0  0  0  0  0
  -14.8525    4.3056    4.8411 H   0  0  0  0  0  0  0  0  0  0  0  0
  -16.5747    4.3823    5.3505 H   0  0  0  0  0  0  0  0  0  0  0  0
  -16.0545    5.1247    3.8241 H   0  0  0  0  0  0  0  0  0  0  0  0
  -18.6573   -2.0431    5.4137 C   0  0  0  0  0  0  0  0  0  0  0  0
  -18.8733   -2.4508    4.2843 O   0  0  0  0  0  0  0  0  0  0  0  0
  -18.4069   -2.9359    6.5909 C   0  0  0  0  0  0  0  0  0  0  0  0
  -19.1387   -2.7313    7.3760 H   0  0  0  0  0  0  0  0  0  0  0  0
  -17.3904   -2.7833    6.9618 H   0  0  0  0  0  0  0  0  0  0  0  0
  -18.5127   -3.9797    6.2819 H   0  0  0  0  0  0  0  0  0  0  0  0
  -20.2977   -0.6359    3.7157 H   0  0  0  0  0  0  0  0  0  0  0  0
  -20.1932    1.0765    3.4263 H   0  0  0  0  0  0  0  0  0  0  0  0
  -21.4445    0.5367    5.1417 C   0  0  0  0  0  0  0  0  0  0  0  0
  -21.5207    1.9100    5.6285 O   0  0  0  0  0  0  0  0  0  0  0  0
  -21.3647   -0.3105    6.4257 C   0  0  0  0  0  0  0  0  0  0  0  0
  -22.7251    0.1461    4.3343 C   0  0  0  0  0  0  0  0  0  0  0  0
  -22.5524   -0.8553    3.9192 H   0  0  0  0  0  0  0  0  0  0  0  0
  -22.8263    0.8136    3.4718 H   0  0  0  0  0  0  0  0  0  0  0  0
  -24.0992    0.1141    5.0449 C   0  0  0  0  0  0  0  0  0  0  0  0
  -24.1515   -0.9040    6.0662 O   0  0  0  0  0  0  0  0  0  0  0  0
  -21.6138    2.9786    4.7949 C   0  0  0  0  0  0  0  0  0  0  0  0
  -21.6962    2.9422    3.5781 O   0  0  0  0  0  0  0  0  0  0  0  0
  -21.5668    4.2447    5.5961 C   0  0  0  0  0  0  0  0  0  0  0  0
  -20.5813    4.3534    6.0561 H   0  0  0  0  0  0  0  0  0  0  0  0
  -22.3478    4.2328    6.3604 H   0  0  0  0  0  0  0  0  0  0  0  0
  -21.7431    5.0988    4.9362 H   0  0  0  0  0  0  0  0  0  0  0  0
  -24.3353   -2.1877    5.6569 C   0  0  0  0  0  0  0  0  0  0  0  0
  -24.5071   -2.5515    4.5034 O   0  0  0  0  0  0  0  0  0  0  0  0
  -24.2471   -3.1103    6.8350 C   0  0  0  0  0  0  0  0  0  0  0  0
  -24.9744   -2.8163    7.5959 H   0  0  0  0  0  0  0  0  0  0  0  0
  -23.2340   -3.0876    7.2455 H   0  0  0  0  0  0  0  0  0  0  0  0
  -24.4734   -4.1313    6.5156 H   0  0  0  0  0  0  0  0  0  0  0  0
  -24.8679   -0.1065    4.2927 H   0  0  0  0  0  0  0  0  0  0  0  0
  -24.4930    1.4276    5.7100 C   0  0  0  0  0  0  0  0  0  0  0  0
  -24.4478    2.2639    5.0072 H   0  0  0  0  0  0  0  0  0  0  0  0
  -23.8674    1.6481    6.5804 H   0  0  0  0  0  0  0  0  0  0  0  0
  -25.5177    1.3584    6.0930 H   0  0  0  0  0  0  0  0  0  0  0  0
  -20.4896   -0.0705    7.0338 H   0  0  0  0  0  0  0  0  0  0  0  0
  -21.3595   -1.3819    6.2064 H   0  0  0  0  0  0  0  0  0  0  0  0
  -22.1932   -0.0878    7.1048 H   0  0  0  0  0  0  0  0  0  0  0  0
  -18.7075    2.5482    5.0930 H   0  0  0  0  0  0  0  0  0  0  0  0
  -17.6507    1.7001    6.2428 H   0  0  0  0  0  0  0  0  0  0  0  0
  -19.3267    1.6957    6.5220 H   0  0  0  0  0  0  0  0  0  0  0  0
  -14.8173   -0.1467    5.8375 H   0  0  0  0  0  0  0  0  0  0  0  0
  -15.9263   -1.3723    5.2042 H   0  0  0  0  0  0  0  0  0  0  0  0
  -16.4382   -0.0527    6.2832 H   0  0  0  0  0  0  0  0  0  0  0  0
  -13.3680    2.3578    3.7181 H   0  0  0  0  0  0  0  0  0  0  0  0
  -12.2172    1.4414    4.7075 H   0  0  0  0  0  0  0  0  0  0  0  0
  -13.8133    1.5027    5.2050 H   0  0  0  0  0  0  0  0  0  0  0  0
   -9.6341   -0.3672    4.1698 H   0  0  0  0  0  0  0  0  0  0  0  0
  -10.7477   -1.5954    3.5443 H   0  0  0  0  0  0  0  0  0  0  0  0
  -11.2235   -0.3089    4.6667 H   0  0  0  0  0  0  0  0  0  0  0  0
   -8.2957    2.1709    2.0830 H   0  0  0  0  0  0  0  0  0  0  0  0
   -7.1328    1.3039    3.0922 H   0  0  0  0  0  0  0  0  0  0  0  0
   -8.7209    1.3109    3.5764 H   0  0  0  0  0  0  0  0  0  0  0  0
   -4.5524   -0.3628    2.7619 H   0  0  0  0  0  0  0  0  0  0  0  0
   -5.5483   -1.6774    2.0961 H   0  0  0  0  0  0  0  0  0  0  0  0
   -6.1642   -0.4074    3.1552 H   0  0  0  0  0  0  0  0  0  0  0  0
   -3.1877    2.1371    0.6320 H   0  0  0  0  0  0  0  0  0  0  0  0
   -2.0497    1.3866    1.7501 H   0  0  0  0  0  0  0  0  0  0  0  0
   -3.6592    1.3343    2.1481 H   0  0  0  0  0  0  0  0  0  0  0  0
    0.5804   -0.2238    1.7482 H   0  0  0  0  0  0  0  0  0  0  0  0
   -0.3355   -1.6027    1.1002 H   0  0  0  0  0  0  0  0  0  0  0  0
   -1.0538   -0.2782    2.0191 H   0  0  0  0  0  0  0  0  0  0  0  0
    2.0966    2.1458   -0.4112 H   0  0  0  0  0  0  0  0  0  0  0  0
    3.1237    1.4654    0.8557 H   0  0  0  0  0  0  0  0  0  0  0  0
    1.4821    1.4405    1.0966 H   0  0  0  0  0  0  0  0  0  0  0  0
    5.7857   -0.1765    1.1529 H   0  0  0  0  0  0  0  0  0  0  0  0
    4.8942   -1.5581    0.4947 H   0  0  0  0  0  0  0  0  0  0  0  0
    4.1316   -0.1785    1.3020 H   0  0  0  0  0  0  0  0  0  0  0  0
    6.7322    1.4659    0.5542 H   0  0  0  0  0  0  0  0  0  0  0  0
    7.4895    2.1405   -0.8946 H   0  0  0  0  0  0  0  0  0  0  0  0
    8.3978    1.4397    0.4610 H   0  0  0  0  0  0  0  0  0  0  0  0
   10.2682   -1.5819    0.1265 H   0  0  0  0  0  0  0  0  0  0  0  0
    9.4908   -0.2083    0.9344 H   0  0  0  0  0  0  0  0  0  0  0  0
   11.1639   -0.2013    0.7905 H   0  0  0  0  0  0  0  0  0  0  0  0
   12.2547    1.4556    0.1818 H   0  0  0  0  0  0  0  0  0  0  0  0
   12.8933    2.1397   -1.3264 H   0  0  0  0  0  0  0  0  0  0  0  0
   13.9262    1.4229   -0.0733 H   0  0  0  0  0  0  0  0  0  0  0  0
   15.8137   -1.6495   -0.6512 H   0  0  0  0  0  0  0  0  0  0  0  0
   15.1886   -0.2516    0.2401 H   0  0  0  0  0  0  0  0  0  0  0  0
   16.8328   -0.2516   -0.2082 H   0  0  0  0  0  0  0  0  0  0  0  0
   18.1398    1.5362   -1.5213 H   0  0  0  0  0  0  0  0  0  0  0  0
   18.1442    1.8917   -3.2726 H   0  0  0  0  0  0  0  0  0  0  0  0
   19.5835    1.2660   -2.4524 H   0  0  0  0  0  0  0  0  0  0  0  0
  1  2  1  0  0  0  0
  1 11  1  0  0  0  0
  1 12  1  0  0  0  0
  1 13  1  0  0  0  0
  2  3  1  0  0  0  0
  2 14  1  0  0  0  0
  2 15  1  0  0  0  0
  3  4  1  0  0  0  0
  3 16  1  0  0  0  0
  3 17  1  0  0  0  0
  4  5  1  0  0  0  0
  4 18  1  0  0  0  0
  4 19  1  0  0  0  0
  5  6  1  0  0  0  0
  6  7  1  0  0  0  0
  6 20  1  0  0  0  0
  7  8  1  0  0  0  0
  8  9  1  0  0  0  0
  8 21  1  0  0  0  0
  8 22  1  0  0  0  0
  9 10  1  0  0  0  0
  9 23  1  0  0  0  0
  9 24  1  0  0  0  0
 10 25  1  0  0  0  0
 26 21  1  0  0  0  0
 27 20  1  0  0  0  0
 28 18  1  0  0  0  0
 29 15  1  0  0  0  0
 30 26  1  0  0  0  0
 31 28  2  0  0  0  0
 32 28  1  0  0  0  0
 33 27  2  0  0  0  0
 34 27  1  0  0  0  0
 35 29  2  0  0  0  0
 36 29  1  0  0  0  0
 37 34  1  0  0  0  0
 38 34  1  0  0  0  0
 39 34  1  0  0  0  0
 40 36  1  0  0  0  0
 41 36  1  0  0  0  0
 42 36  1  0  0  0  0
 43 32  1  0  0  0  0
 44 32  1  0  0  0  0
 45 32  1  0  0  0  0
 46 30  1  0  0  0  0
 47 30  1  0  0  0  0
 48 30  1  0  0  0  0
 49  7  1  0  0  0  0
 50  7  1  0  0  0  0
 51 26  2  0  0  0  0
 52  5  1  0  0  0  0
 53  5  1  0  0  0  0
 54  6  1  0  0  0  0
 55 12  1  0  0  0  0
 56 12  1  0  0  0  0
 57 12  1  0  0  0  0
 58 57  1  0  0  0  0
 59 55  1  0  0  0  0
 60 59  1  0  0  0  0
 61 59  2  0  0  0  0
 62 60  1  0  0  0  0
 63 60  1  0  0  0  0
 64 60  1  0  0  0  0
 65 57  1  0  0  0  0
 66 57  1  0  0  0  0
 67 58  1  0  0  0  0
 68 58  1  0  0  0  0
 69 58  1  0  0  0  0
 70 69  1  0  0  0  0
 71 69  1  0  0  0  0
 72 69  1  0  0  0  0
 73 72  1  0  0  0  0
 74 72  1  0  0  0  0
 75 72  1  0  0  0  0
 76 75  1  0  0  0  0
 77 75  1  0  0  0  0
 78 75  1  0  0  0  0
 79 68  1  0  0  0  0
 80 79  2  0  0  0  0
 81 79  1  0  0  0  0
 82 81  1  0  0  0  0
 83 81  1  0  0  0  0
 84 81  1  0  0  0  0
 85 73  1  0  0  0  0
 86 85  1  0  0  0  0
 87 86  1  0  0  0  0
 88 86  1  0  0  0  0
 89 86  1  0  0  0  0
 90 85  2  0  0  0  0
 91 78  1  0  0  0  0
 92 78  1  0  0  0  0
 93 78  1  0  0  0  0
 94 93  1  0  0  0  0
 95 93  1  0  0  0  0
 96 93  1  0  0  0  0
 97 96  1  0  0  0  0
 98 96  1  0  0  0  0
 99 96  1  0  0  0  0
100 92  1  0  0  0  0
101 97  1  0  0  0  0
102100  2  0  0  0  0
103100  1  0  0  0  0
104101  2  0  0  0  0
105101  1  0  0  0  0
106105  1  0  0  0  0
107105  1  0  0  0  0
108105  1  0  0  0  0
109103  1  0  0  0  0
110103  1  0  0  0  0
111103  1  0  0  0  0
112 99  1  0  0  0  0
113 99  1  0  0  0  0
114 99  1  0  0  0  0
115 25  1  0  0  0  0
116115  2  0  0  0  0
117115  1  0  0  0  0
118117  1  0  0  0  0
119117  1  0  0  0  0
120117  1  0  0  0  0
121 10  1  0  0  0  0
122 10  1  0  0  0  0
123122  1  0  0  0  0
124122  1  0  0  0  0
125122  1  0  0  0  0
126125  1  0  0  0  0
127125  1  0  0  0  0
128125  1  0  0  0  0
129127  1  0  0  0  0
130129  2  0  0  0  0
131129  1  0  0  0  0
132131  1  0  0  0  0
133131  1  0  0  0  0
134131  1  0  0  0  0
135128  1  0  0  0  0
136128  1  0  0  0  0
137128  1  0  0  0  0
138137  1  0  0  0  0
139137  1  0  0  0  0
140137  1  0  0  0  0
141140  1  0  0  0  0
142140  1  0  0  0  0
143140  1  0  0  0  0
144143  1  0  0  0  0
145143  1  0  0  0  0
146143  1  0  0  0  0
147138  1  0  0  0  0
148147  2  0  0  0  0
149147  1  0  0  0  0
150149  1  0  0  0  0
151149  1  0  0  0  0
152149  1  0  0  0  0
153145  1  0  0  0  0
154153  2  0  0  0  0
155153  1  0  0  0  0
156155  1  0  0  0  0
157155  1  0  0  0  0
158155  1  0  0  0  0
159146  1  0  0  0  0
160146  1  0  0  0  0
161146  1  0  0  0  0
162161  1  0  0  0  0
163161  1  0  0  0  0
164161  1  0  0  0  0
165164  1  0  0  0  0
166164  1  0  0  0  0
167164  1  0  0  0  0
168167  1  0  0  0  0
169167  1  0  0  0  0
170167  1  0  0  0  0
171162  1  0  0  0  0
172171  2  0  0  0  0
173171  1  0  0  0  0
174173  1  0  0  0  0
175173  1  0  0  0  0
176173  1  0  0  0  0
177169  1  0  0  0  0
178177  2  0  0  0  0
179177  1  0  0  0  0
180179  1  0  0  0  0
181179  1  0  0  0  0
182179  1  0  0  0  0
183170  1  0  0  0  0
184170  1  0  0  0  0
185170  1  0  0  0  0
186185  1  0  0  0  0
187185  1  0  0  0  0
188185  1  0  0  0  0
189188  1  0  0  0  0
190188  1  0  0  0  0
191188  1  0  0  0  0
192191  1  0  0  0  0
193186  1  0  0  0  0
194193  2  0  0  0  0
195193  1  0  0  0  0
196195  1  0  0  0  0
197195  1  0  0  0  0
198195  1  0  0  0  0
199192  1  0  0  0  0
200199  2  0  0  0  0
201199  1  0  0  0  0
202201  1  0  0  0  0
203201  1  0  0  0  0
204201  1  0  0  0  0
205191  1  0  0  0  0
206191  1  0  0  0  0
207206  1  0  0  0  0
208206  1  0  0  0  0
209206  1  0  0  0  0
210187  1  0  0  0  0
211187  1  0  0  0  0
212187  1  0  0  0  0
213168  1  0  0  0  0
214168  1  0  0  0  0
215168  1  0  0  0  0
216163  1  0  0  0  0
217163  1  0  0  0  0
218163  1  0  0  0  0
219144  1  0  0  0  0
220144  1  0  0  0  0
221144  1  0  0  0  0
222139  1  0  0  0  0
223139  1  0  0  0  0
224139  1  0  0  0  0
225126  1  0  0  0  0
226126  1  0  0  0  0
227126  1  0  0  0  0
228121  1  0  0  0  0
229121  1  0  0  0  0
230121  1  0  0  0  0
231 22  1  0  0  0  0
232 22  1  0  0  0  0
233 22  1  0  0  0  0
234 54  1  0  0  0  0
235 54  1  0  0  0  0
236 54  1  0  0  0  0
237 19  1  0  0  0  0
238 19  1  0  0  0  0
239 19  1  0  0  0  0
240 14  1  0  0  0  0
241 14  1  0  0  0  0
242 14  1  0  0  0  0
243 56  1  0  0  0  0
244 56  1  0  0  0  0
245 56  1  0  0  0  0
246 67  1  0  0  0  0
247 67  1  0  0  0  0
248 67  1  0  0  0  0
249 74  1  0  0  0  0
250 74  1  0  0  0  0
251 74  1  0  0  0  0
252 91  1  0  0  0  0
253 91  1  0  0  0  0
254 91  1  0  0  0  0
255 98  1  0  0  0  0
256 98  1  0  0  0  0
257 98  1  0  0  0  0
M  END
