file:/home/ljacques/DocumentosLASIM/MOL/PS/POLY_PS1.mol
__Jmol-12_10311215313D 1   1.00000     0.00000     0
Jmol version 12.3.28  2012-05-30 15:29 EXTRACT: ({0:6 13 24:37 39 44:46 49 53:55 63:70 76:78 84 88:90 93:109 111 115 119 120 123 127 133 134 139 140 156 162:164 170 174:176 181:194 196 201:203 206 213:215 218:220 226:228 231 238:240 245 246 249:260 262 267:269 272 279:281 288:290 296:298 304 308:310 317 318})
146154  0  0  0  0              1 V2000
   0.40905  -0.32244  -0.22787 C   0  0  0  0  0  0
  -0.52193  -1.37566   0.13746 C   0  0  0  0  0  0
  -1.65123  -1.18422   0.86504 C   0  0  0  0  0  0
  -1.98953   0.33912   0.97748 C   0  0  0  0  0  0
  -1.21431   1.44590   0.41174 C   0  0  0  0  0  0
  -0.05278   1.21443  -0.39288 C   0  0  0  0  0  0
   1.71475  -0.68928  -0.88482 C   0  0  0  0  0  0
   2.48495  -1.61086   0.01379 C   0  0  0  0  0  0
   1.89679  -2.52258   0.19502 H   0  0  0  0  0  0
   2.75761  -0.92409   1.31917 C   0  0  0  0  0  0
   3.43806  -1.87870  -0.46567 H   0  0  0  0  0  0
   1.80456  -0.65628   1.79874 H   0  0  0  0  0  0
   3.55972   0.31915   1.07218 C   0  0  0  0  0  0
   3.52781  -1.84568   2.21778 C   0  0  0  0  0  0
   4.48092  -2.11351   1.73833 H   0  0  0  0  0  0
   2.93965  -2.75740   2.39902 H   0  0  0  0  0  0
   3.80047  -1.15891   3.52317 C   0  0  0  0  0  0
   2.50085  -0.79370   4.17712 C   0  0  0  0  0  0
   4.38869  -0.24720   3.34204 H   0  0  0  0  0  0
   4.57068  -2.08049   4.42177 C   0  0  0  0  0  0
   2.30077   0.20279  -1.15092 H   0  0  0  0  0  0
   1.55924  -1.12890  -1.88110 H   0  0  0  0  0  0
   4.85942  -0.04593   0.41830 C   0  0  0  0  0  0
   3.12879   1.71203   1.42456 C   0  0  0  0  0  0
   5.08752  -1.09925   0.19808 H   0  0  0  0  0  0
   5.84805   1.02534   0.06472 C   0  0  0  0  0  0
   4.19857   2.68338   1.02194 C   0  0  0  0  0  0
   2.17569   1.97976   1.90408 H   0  0  0  0  0  0
   5.45690   2.18704   0.37364 C   0  0  0  0  0  0
   4.06029   3.75969   1.20210 H   0  0  0  0  0  0
   6.81639   0.82056  -0.41529 H   0  0  0  0  0  0
   6.17300   2.98246   0.11961 H   0  0  0  0  0  0
   0.44560   1.96541  -1.02350 H   0  0  0  0  0  0
  -1.53233   2.48011   0.60992 H   0  0  0  0  0  0
  -2.89888   0.60526   1.53629 H   0  0  0  0  0  0
  -2.24822  -1.99115   1.31503 H   0  0  0  0  0  0
  -0.29614  -2.39843  -0.19863 H   0  0  0  0  0  0
   1.69867  -2.03687   4.42424 C   0  0  0  0  0  0
   2.07005   0.59924   4.52945 C   0  0  0  0  0  0
   2.09984  -3.01789   4.12984 H   0  0  0  0  0  0
   0.34944  -1.94228   5.07283 C   0  0  0  0  0  0
   0.71299   0.55674   5.16713 C   0  0  0  0  0  0
   2.65831   1.51090   4.34823 H   0  0  0  0  0  0
   0.01462  -0.75704   5.35760 C   0  0  0  0  0  0
   0.22996   1.48902   5.49508 H   0  0  0  0  0  0
  -0.28506  -2.81667   5.27991 H   0  0  0  0  0  0
  -0.97334  -0.67352   5.83404 H   0  0  0  0  0  0
   5.52378  -2.34832   3.94232 H   0  0  0  0  0  0
   3.98251  -2.99221   4.60301 H   0  0  0  0  0  0
   4.84334  -1.39372   5.72716 C   0  0  0  0  0  0
   3.89028  -1.12590   6.20673 H   0  0  0  0  0  0
   5.64545  -0.15048   5.48017 C   0  0  0  0  0  0
   5.61354  -2.31530   6.62577 C   0  0  0  0  0  0
   6.56664  -2.58313   6.14632 H   0  0  0  0  0  0
   5.02537  -3.22702   6.80701 H   0  0  0  0  0  0
   5.88620  -1.62853   7.93116 C   0  0  0  0  0  0
   4.58658  -1.26332   8.58511 C   0  0  0  0  0  0
   6.47442  -0.71682   7.75003 H   0  0  0  0  0  0
   6.65640  -2.55011   8.82977 C   0  0  0  0  0  0
   7.60951  -2.81794   8.35031 H   0  0  0  0  0  0
   6.06824  -3.46183   9.01100 H   0  0  0  0  0  0
   6.92906  -1.86334  10.13515 C   0  0  0  0  0  0
   6.94514  -0.51556   4.82629 C   0  0  0  0  0  0
   7.74725   0.72768   4.57930 C   0  0  0  0  0  0
   5.21452   1.24241   5.83255 C   0  0  0  0  0  0
   7.26116  -1.53701   4.56787 H   0  0  0  0  0  0
   6.28429   2.21376   5.42993 C   0  0  0  0  0  0
   4.26141   1.51013   6.31206 H   0  0  0  0  0  0
   7.54262   1.71742   4.78163 C   0  0  0  0  0  0
   6.14602   3.29006   5.61009 H   0  0  0  0  0  0
   8.72165   0.55306   4.09963 H   0  0  0  0  0  0
   8.30141   2.46316   4.50211 H   0  0  0  0  0  0
   3.78440  -2.50649   8.83223 C   0  0  0  0  0  0
   4.15577   0.12962   8.93744 C   0  0  0  0  0  0
   4.18557  -3.48751   8.53783 H   0  0  0  0  0  0
   2.43516  -2.41191   9.48082 C   0  0  0  0  0  0
   2.79872   0.08712   9.57512 C   0  0  0  0  0  0
   4.74404   1.04127   8.75622 H   0  0  0  0  0  0
   2.10034  -1.22666   9.76559 C   0  0  0  0  0  0
   2.31568   1.01940   9.90307 H   0  0  0  0  0  0
   1.80066  -3.28629   9.68790 H   0  0  0  0  0  0
   1.11238  -1.14314  10.24202 H   0  0  0  0  0  0
   5.97601  -1.59552  10.61471 H   0  0  0  0  0  0
   7.73117  -0.62010   9.88816 C   0  0  0  0  0  0
   7.69926  -2.78492  11.03376 C   0  0  0  0  0  0
   8.65237  -3.05275  10.55431 H   0  0  0  0  0  0
   7.11110  -3.69664  11.21500 H   0  0  0  0  0  0
   7.97192  -2.09815  12.33915 C   0  0  0  0  0  0
   6.67230  -1.73295  12.99310 C   0  0  0  0  0  0
   8.56014  -1.18644  12.15802 H   0  0  0  0  0  0
   8.74213  -3.01974  13.23775 C   0  0  0  0  0  0
   9.69523  -3.28757  12.75830 H   0  0  0  0  0  0
   8.15396  -3.93146  13.41899 H   0  0  0  0  0  0
   9.01478  -2.33296  14.54314 C   0  0  0  0  0  0
   9.03086  -0.98518   9.23428 C   0  0  0  0  0  0
   7.30025   0.77279  10.24054 C   0  0  0  0  0  0
   9.25897  -2.03850   9.01406 H   0  0  0  0  0  0
  10.01950   0.08609   8.88070 C   0  0  0  0  0  0
   8.37002   1.74413   9.83792 C   0  0  0  0  0  0
   6.34714   1.04051  10.72006 H   0  0  0  0  0  0
   9.62835   1.24779   9.18962 C   0  0  0  0  0  0
   8.23175   2.82044  10.01808 H   0  0  0  0  0  0
  10.98784  -0.11869   8.40069 H   0  0  0  0  0  0
  10.34445   2.04321   8.93558 H   0  0  0  0  0  0
   5.87012  -2.97611  13.24022 C   0  0  0  0  0  0
   6.24150  -0.34001  13.34543 C   0  0  0  0  0  0
   6.27129  -3.95713  12.94582 H   0  0  0  0  0  0
   4.52089  -2.88153  13.88881 C   0  0  0  0  0  0
   4.88444  -0.38250  13.98311 C   0  0  0  0  0  0
   6.82976   0.57165  13.16421 H   0  0  0  0  0  0
   4.18607  -1.69629  14.17358 C   0  0  0  0  0  0
   4.40141   0.54977  14.31106 H   0  0  0  0  0  0
   3.88639  -3.75591  14.09589 H   0  0  0  0  0  0
   3.19811  -1.61277  14.65002 H   0  0  0  0  0  0
   9.78499  -3.25455  15.44175 C   0  0  0  0  0  0
  10.73809  -3.52238  14.96230 H   0  0  0  0  0  0
   9.19683  -4.16627  15.62299 H   0  0  0  0  0  0
  10.05765  -2.56777  16.74714 C   0  0  0  0  0  0
   8.75803  -2.20257  17.40108 C   0  0  0  0  0  0
  10.64586  -1.65606  16.56601 H   0  0  0  0  0  0
  10.82785  -3.48936  17.64574 C   0  0  0  0  0  0
  11.78096  -3.75719  17.16629 H   0  0  0  0  0  0
  10.23969  -4.40108  17.82698 H   0  0  0  0  0  0
  11.02780  -2.98572  18.60303 H   0  0  0  0  0  0
   8.08741  -1.98195  15.01935 H   0  0  0  0  0  0
   9.72768  -1.02817  14.34483 C   0  0  0  0  0  0
  11.03823  -1.27375  13.65768 C   0  0  0  0  0  0
   9.21007   0.31454  14.76819 C   0  0  0  0  0  0
  11.33286  -2.29789  13.38500 H   0  0  0  0  0  0
  11.94702  -0.12279  13.34237 C   0  0  0  0  0  0
  10.20571   1.37368  14.39813 C   0  0  0  0  0  0
   8.24900   0.49463  15.27211 H   0  0  0  0  0  0
  11.48389   0.99422  13.71088 C   0  0  0  0  0  0
   9.99852   2.42866  14.63073 H   0  0  0  0  0  0
  12.91906  -0.23909  12.84074 H   0  0  0  0  0  0
  12.14088   1.84721  13.48548 H   0  0  0  0  0  0
   7.95585  -3.44574  17.64821 C   0  0  0  0  0  0
   8.32722  -0.80963  17.75342 C   0  0  0  0  0  0
   8.35702  -4.42675  17.35381 H   0  0  0  0  0  0
   6.60661  -3.35115  18.29679 C   0  0  0  0  0  0
   6.97016  -0.85213  18.39109 C   0  0  0  0  0  0
   8.91549   0.10203  17.57219 H   0  0  0  0  0  0
   6.27179  -2.16591  18.58156 C   0  0  0  0  0  0
   6.48713   0.08015  18.71904 H   0  0  0  0  0  0
   5.97211  -4.22554  18.50387 H   0  0  0  0  0  0
   5.28383  -2.08239  19.05799 H   0  0  0  0  0  0
  1  2  2  0  0  0
  2  3  1  0  0  0
  3  4  2  0  0  0
  4  5  1  0  0  0
  5  6  2  0  0  0
  1  6  1  0  0  0
  1  7  1  0  0  0
  7  8  1  0  0  0
  9  8  1  0  0  0
 10  8  1  0  0  0
 11  8  1  0  0  0
 12 10  1  0  0  0
 13 10  1  0  0  0
 14 10  1  0  0  0
 15 14  1  0  0  0
 16 14  1  0  0  0
 17 14  1  0  0  0
 18 17  1  0  0  0
 19 17  1  0  0  0
 20 17  1  0  0  0
 21  7  1  0  0  0
 22  7  1  0  0  0
 23 13  2  0  0  0
 24 13  1  0  0  0
 25 23  1  0  0  0
 26 23  1  0  0  0
 27 24  2  0  0  0
 28 24  1  0  0  0
 29 27  1  0  0  0
 30 27  1  0  0  0
 26 29  2  0  0  0
 31 26  1  0  0  0
 32 29  1  0  0  0
 33  6  1  0  0  0
 34  5  1  0  0  0
 35  4  1  0  0  0
 36  3  1  0  0  0
 37  2  1  0  0  0
 38 18  2  0  0  0
 39 18  1  0  0  0
 40 38  1  0  0  0
 41 38  1  0  0  0
 42 39  2  0  0  0
 43 39  1  0  0  0
 44 42  1  0  0  0
 45 42  1  0  0  0
 44 41  2  0  0  0
 46 41  1  0  0  0
 47 44  1  0  0  0
 48 20  1  0  0  0
 49 20  1  0  0  0
 50 20  1  0  0  0
 51 50  1  0  0  0
 52 50  1  0  0  0
 53 50  1  0  0  0
 54 53  1  0  0  0
 55 53  1  0  0  0
 56 53  1  0  0  0
 57 56  1  0  0  0
 58 56  1  0  0  0
 59 56  1  0  0  0
 60 59  1  0  0  0
 61 59  1  0  0  0
 62 59  1  0  0  0
 63 52  2  0  0  0
 64 63  1  0  0  0
 65 52  1  0  0  0
 66 63  1  0  0  0
 67 65  2  0  0  0
 68 65  1  0  0  0
 69 67  1  0  0  0
 70 67  1  0  0  0
 69 64  2  0  0  0
 71 64  1  0  0  0
 72 69  1  0  0  0
 73 57  2  0  0  0
 74 57  1  0  0  0
 75 73  1  0  0  0
 76 73  1  0  0  0
 77 74  2  0  0  0
 78 74  1  0  0  0
 79 77  1  0  0  0
 80 77  1  0  0  0
 79 76  2  0  0  0
 81 76  1  0  0  0
 82 79  1  0  0  0
 83 62  1  0  0  0
 84 62  1  0  0  0
 85 62  1  0  0  0
 86 85  1  0  0  0
 87 85  1  0  0  0
 88 85  1  0  0  0
 89 88  1  0  0  0
 90 88  1  0  0  0
 91 88  1  0  0  0
 92 91  1  0  0  0
 93 91  1  0  0  0
 94 91  1  0  0  0
 95 84  2  0  0  0
 96 84  1  0  0  0
 97 95  1  0  0  0
 98 95  1  0  0  0
 99 96  2  0  0  0
100 96  1  0  0  0
101 99  1  0  0  0
102 99  1  0  0  0
101 98  2  0  0  0
103 98  1  0  0  0
104101  1  0  0  0
105 89  2  0  0  0
106 89  1  0  0  0
107105  1  0  0  0
108105  1  0  0  0
109106  2  0  0  0
110106  1  0  0  0
111109  1  0  0  0
112109  1  0  0  0
111108  2  0  0  0
113108  1  0  0  0
114111  1  0  0  0
115 94  1  0  0  0
116115  1  0  0  0
117115  1  0  0  0
118115  1  0  0  0
119118  1  0  0  0
120118  1  0  0  0
121118  1  0  0  0
122121  1  0  0  0
123121  1  0  0  0
124121  1  0  0  0
125 94  1  0  0  0
126 94  1  0  0  0
127126  2  0  0  0
128126  1  0  0  0
129127  1  0  0  0
130127  1  0  0  0
131128  2  0  0  0
132128  1  0  0  0
133131  1  0  0  0
134131  1  0  0  0
133130  2  0  0  0
135130  1  0  0  0
136133  1  0  0  0
137119  2  0  0  0
138119  1  0  0  0
139137  1  0  0  0
140137  1  0  0  0
141138  2  0  0  0
142138  1  0  0  0
143141  1  0  0  0
144141  1  0  0  0
143140  2  0  0  0
145140  1  0  0  0
146143  1  0  0  0
M  END
