
 OpenBabel09111216203D

177176  0  0  0  0  0  0  0  0999 V2000
    1.3390   -1.7815   -1.0531 C   0  0  0  0  0  0  0  0  0  0  0  0
    2.7049   -2.3788   -0.7275 C   0  0  0  0  0  0  0  0  0  0  0  0
    2.7085   -2.7557    0.3023 H   0  0  0  0  0  0  0  0  0  0  0  0
    3.7125   -1.3787   -0.8859 O   0  0  0  0  0  0  0  0  0  0  0  0
    2.9080   -3.2254   -1.3943 H   0  0  0  0  0  0  0  0  0  0  0  0
    5.0115   -1.8937   -0.5894 C   0  0  0  0  0  0  0  0  0  0  0  0
    5.0412   -2.2670    0.4413 H   0  0  0  0  0  0  0  0  0  0  0  0
    5.2439   -2.7328   -1.2560 H   0  0  0  0  0  0  0  0  0  0  0  0
    6.0497   -0.7898   -0.7677 C   0  0  0  0  0  0  0  0  0  0  0  0
    6.0210   -0.4170   -1.7987 H   0  0  0  0  0  0  0  0  0  0  0  0
    5.8154    0.0496   -0.1020 H   0  0  0  0  0  0  0  0  0  0  0  0
    7.3493   -1.3029   -0.4703 O   0  0  0  0  0  0  0  0  0  0  0  0
    8.3522   -0.2950   -0.6089 C   0  0  0  0  0  0  0  0  0  0  0  0
    8.1425    0.5389    0.0718 H   0  0  0  0  0  0  0  0  0  0  0  0
    8.3492    0.0996   -1.6320 H   0  0  0  0  0  0  0  0  0  0  0  0
    9.7210   -0.8893   -0.2902 C   0  0  0  0  0  0  0  0  0  0  0  0
    9.7224   -1.2917    0.7299 H   0  0  0  0  0  0  0  0  0  0  0  0
    9.9340   -1.7173   -0.9769 H   0  0  0  0  0  0  0  0  0  0  0  0
   10.7214    0.1226   -0.4165 O   0  0  0  0  0  0  0  0  0  0  0  0
   12.0256   -0.3961   -0.1507 C   0  0  0  0  0  0  0  0  0  0  0  0
   12.0624   -0.8229    0.8588 H   0  0  0  0  0  0  0  0  0  0  0  0
   12.2622   -1.1969   -0.8614 H   0  0  0  0  0  0  0  0  0  0  0  0
   13.0541    0.7243   -0.2734 C   0  0  0  0  0  0  0  0  0  0  0  0
   13.0090    1.1612   -1.2781 H   0  0  0  0  0  0  0  0  0  0  0  0
   12.8235    1.5183    0.4472 H   0  0  0  0  0  0  0  0  0  0  0  0
   14.3610    0.2025   -0.0274 O   0  0  0  0  0  0  0  0  0  0  0  0
   15.3535    1.2274   -0.0993 C   0  0  0  0  0  0  0  0  0  0  0  0
   15.1538    1.9951    0.6578 H   0  0  0  0  0  0  0  0  0  0  0  0
   15.3240    1.7121   -1.0826 H   0  0  0  0  0  0  0  0  0  0  0  0
   16.7337    0.6196    0.1328 C   0  0  0  0  0  0  0  0  0  0  0  0
   16.9387   -0.1369   -0.6341 H   0  0  0  0  0  0  0  0  0  0  0  0
   16.7614    0.1222    1.1096 H   0  0  0  0  0  0  0  0  0  0  0  0
   17.7215    1.6501    0.0826 O   0  0  0  0  0  0  0  0  0  0  0  0
   19.0375    1.1235    0.2601 C   0  0  0  0  0  0  0  0  0  0  0  0
   19.2674    0.4125   -0.5424 H   0  0  0  0  0  0  0  0  0  0  0  0
   19.1033    0.5854    1.2134 H   0  0  0  0  0  0  0  0  0  0  0  0
   20.0470    2.2671    0.2439 C   0  0  0  0  0  0  0  0  0  0  0  0
   19.9742    2.8134   -0.7042 H   0  0  0  0  0  0  0  0  0  0  0  0
   19.8191    2.9712    1.0533 H   0  0  0  0  0  0  0  0  0  0  0  0
   21.3674    1.7455    0.4046 O   0  0  0  0  0  0  0  0  0  0  0  0
   22.3377    2.7932    0.4380 C   0  0  0  0  0  0  0  0  0  0  0  0
   22.1335    3.4645    1.2808 H   0  0  0  0  0  0  0  0  0  0  0  0
   22.2823    3.3870   -0.4824 H   0  0  0  0  0  0  0  0  0  0  0  0
   23.7351    2.1976    0.5814 C   0  0  0  0  0  0  0  0  0  0  0  0
   23.9501    1.5443   -0.2726 H   0  0  0  0  0  0  0  0  0  0  0  0
   23.7885    1.5885    1.4916 H   0  0  0  0  0  0  0  0  0  0  0  0
   24.6925    3.2551    0.6441 O   0  0  0  0  0  0  0  0  0  0  0  0
    1.1368   -0.9346   -0.3865 H   0  0  0  0  0  0  0  0  0  0  0  0
    0.3302   -2.7805   -0.8948 O   0  0  0  0  0  0  0  0  0  0  0  0
    1.3355   -1.4048   -2.0829 H   0  0  0  0  0  0  0  0  0  0  0  0
   26.0249    2.7547    0.7632 C   0  0  0  0  0  0  0  0  0  0  0  0
   26.2749    2.1421   -0.1111 H   0  0  0  0  0  0  0  0  0  0  0  0
   26.1124    2.1207    1.6536 H   0  0  0  0  0  0  0  0  0  0  0  0
   26.9928    3.9290    0.8685 C   0  0  0  0  0  0  0  0  0  0  0  0
   26.7374    4.5388    1.7437 H   0  0  0  0  0  0  0  0  0  0  0  0
   26.9001    4.5657   -0.0196 H   0  0  0  0  0  0  0  0  0  0  0  0
   28.3322    3.4455    0.9834 O   0  0  0  0  0  0  0  0  0  0  0  0
   -0.9684   -2.2610   -1.1854 C   0  0  0  0  0  0  0  0  0  0  0  0
   -0.9997   -1.8818   -2.2139 H   0  0  0  0  0  0  0  0  0  0  0  0
   -1.1971   -1.4250   -0.5136 H   0  0  0  0  0  0  0  0  0  0  0  0
   -2.0095   -3.3626   -1.0108 C   0  0  0  0  0  0  0  0  0  0  0  0
   -1.9793   -3.7419    0.0177 H   0  0  0  0  0  0  0  0  0  0  0  0
   -1.7799   -4.1986   -1.6825 H   0  0  0  0  0  0  0  0  0  0  0  0
   -3.3079   -2.8429   -1.3019 O   0  0  0  0  0  0  0  0  0  0  0  0
   -4.3146   -3.8467   -1.1628 C   0  0  0  0  0  0  0  0  0  0  0  0
   -4.3130   -4.2410   -0.1394 H   0  0  0  0  0  0  0  0  0  0  0  0
   -4.1082   -4.6818   -1.8430 H   0  0  0  0  0  0  0  0  0  0  0  0
   -5.6812   -3.2479   -1.4823 C   0  0  0  0  0  0  0  0  0  0  0  0
   -5.6808   -2.8469   -2.5029 H   0  0  0  0  0  0  0  0  0  0  0  0
   -5.8925   -2.4186   -0.7967 H   0  0  0  0  0  0  0  0  0  0  0  0
   -6.6839   -4.2569   -1.3536 O   0  0  0  0  0  0  0  0  0  0  0  0
   -7.9845   -3.7435   -1.6457 C   0  0  0  0  0  0  0  0  0  0  0  0
   -8.0099   -3.3411   -2.6655 H   0  0  0  0  0  0  0  0  0  0  0  0
   -8.2291   -2.9262   -0.9568 H   0  0  0  0  0  0  0  0  0  0  0  0
   -9.0128   -4.8619   -1.5069 C   0  0  0  0  0  0  0  0  0  0  0  0
   -8.9877   -5.2631   -0.4865 H   0  0  0  0  0  0  0  0  0  0  0  0
   -8.7638   -5.6800   -2.1935 H   0  0  0  0  0  0  0  0  0  0  0  0
  -10.3164   -4.3566   -1.8010 O   0  0  0  0  0  0  0  0  0  0  0  0
  -11.3060   -5.3803   -1.6872 C   0  0  0  0  0  0  0  0  0  0  0  0
  -11.3055   -5.7908   -0.6702 H   0  0  0  0  0  0  0  0  0  0  0  0
  -11.0776   -6.2009   -2.3781 H   0  0  0  0  0  0  0  0  0  0  0  0
  -12.6823   -4.8058   -2.0092 C   0  0  0  0  0  0  0  0  0  0  0  0
  -12.6855   -4.3957   -3.0261 H   0  0  0  0  0  0  0  0  0  0  0  0
  -12.9156   -3.9883   -1.3167 H   0  0  0  0  0  0  0  0  0  0  0  0
  -13.6610   -5.8393   -1.8944 O   0  0  0  0  0  0  0  0  0  0  0  0
  -14.9732   -5.3590   -2.1895 C   0  0  0  0  0  0  0  0  0  0  0  0
  -15.0070   -4.9581   -3.2095 H   0  0  0  0  0  0  0  0  0  0  0  0
  -15.2412   -4.5488   -1.5011 H   0  0  0  0  0  0  0  0  0  0  0  0
  -15.9685   -6.5067   -2.0510 C   0  0  0  0  0  0  0  0  0  0  0  0
  -15.9313   -6.9064   -1.0304 H   0  0  0  0  0  0  0  0  0  0  0  0
  -15.6940   -7.3177   -2.7365 H   0  0  0  0  0  0  0  0  0  0  0  0
  -17.2875   -6.0440   -2.3462 O   0  0  0  0  0  0  0  0  0  0  0  0
  -18.2418   -7.0998   -2.2231 C   0  0  0  0  0  0  0  0  0  0  0  0
  -18.2270   -7.5008   -1.2024 H   0  0  0  0  0  0  0  0  0  0  0  0
  -17.9851   -7.9186   -2.9062 H   0  0  0  0  0  0  0  0  0  0  0  0
  -19.6379   -6.5788   -2.5496 C   0  0  0  0  0  0  0  0  0  0  0  0
  -19.6574   -6.1805   -3.5709 H   0  0  0  0  0  0  0  0  0  0  0  0
  -19.9011   -5.7633   -1.8655 H   0  0  0  0  0  0  0  0  0  0  0  0
  -20.5757   -7.6480   -2.4217 O   0  0  0  0  0  0  0  0  0  0  0  0
  -21.9057   -7.2245   -2.7224 C   0  0  0  0  0  0  0  0  0  0  0  0
  -21.9558   -6.8398   -3.7479 H   0  0  0  0  0  0  0  0  0  0  0  0
  -22.2061   -6.4163   -2.0451 H   0  0  0  0  0  0  0  0  0  0  0  0
  -22.8528   -8.4102   -2.5669 C   0  0  0  0  0  0  0  0  0  0  0  0
  -22.8001   -8.7924   -1.5403 H   0  0  0  0  0  0  0  0  0  0  0  0
  -22.5444   -9.2194   -3.2398 H   0  0  0  0  0  0  0  0  0  0  0  0
  -24.1891   -8.0067   -2.8694 O   0  0  0  0  0  0  0  0  0  0  0  0
  -25.0992   -9.0991   -2.7318 C   0  0  0  0  0  0  0  0  0  0  0  0
  -25.0699   -9.4842   -1.7053 H   0  0  0  0  0  0  0  0  0  0  0  0
  -24.8085   -9.9164   -3.4028 H   0  0  0  0  0  0  0  0  0  0  0  0
  -26.5140   -8.6387   -3.0674 C   0  0  0  0  0  0  0  0  0  0  0  0
  -26.5470   -8.2559   -4.0943 H   0  0  0  0  0  0  0  0  0  0  0  0
  -26.8098   -7.8242   -2.3955 H   0  0  0  0  0  0  0  0  0  0  0  0
  -27.4103   -9.7412   -2.9257 O   0  0  0  0  0  0  0  0  0  0  0  0
  -28.7543   -9.3694   -3.2320 C   0  0  0  0  0  0  0  0  0  0  0  0
  -28.8171   -8.9994   -4.2622 H   0  0  0  0  0  0  0  0  0  0  0  0
  -29.0833   -8.5635   -2.5653 H   0  0  0  0  0  0  0  0  0  0  0  0
  -29.6615  -10.5839   -3.0624 C   0  0  0  0  0  0  0  0  0  0  0  0
  -29.5965  -10.9531   -2.0319 H   0  0  0  0  0  0  0  0  0  0  0  0
  -29.3289  -11.3899   -3.7274 H   0  0  0  0  0  0  0  0  0  0  0  0
  -31.0087  -10.2226   -3.3682 O   0  0  0  0  0  0  0  0  0  0  0  0
  -31.8897  -11.3367   -3.2195 C   0  0  0  0  0  0  0  0  0  0  0  0
  -31.8494  -11.7126   -2.1902 H   0  0  0  0  0  0  0  0  0  0  0  0
  -31.5807  -12.1515   -3.8851 H   0  0  0  0  0  0  0  0  0  0  0  0
  -33.3145  -10.9094   -3.5561 C   0  0  0  0  0  0  0  0  0  0  0  0
  -33.3563  -10.5352   -4.5858 H   0  0  0  0  0  0  0  0  0  0  0  0
  -33.6250  -10.0953   -2.8905 H   0  0  0  0  0  0  0  0  0  0  0  0
  -34.1905  -12.0270   -3.4049 O   0  0  0  0  0  0  0  0  0  0  0  0
  -35.5400  -11.6754   -3.7103 C   0  0  0  0  0  0  0  0  0  0  0  0
  -35.6102  -11.3116   -4.7423 H   0  0  0  0  0  0  0  0  0  0  0  0
  -35.8789  -10.8704   -3.0475 H   0  0  0  0  0  0  0  0  0  0  0  0
  -36.4306  -12.8993   -3.5329 C   0  0  0  0  0  0  0  0  0  0  0  0
  -36.3715  -13.2680   -2.5034 H   0  0  0  0  0  0  0  0  0  0  0  0
  -36.1034  -13.7083   -4.1946 H   0  0  0  0  0  0  0  0  0  0  0  0
  -37.7816  -12.5723   -3.8322 O   0  0  0  0  0  0  0  0  0  0  0  0
  -38.3015  -13.3844   -3.7031 H   0  0  0  0  0  0  0  0  0  0  0  0
   29.2589    4.5251    1.1118 C   0  0  0  0  0  0  0  0  0  0  0  0
   29.0233    5.1155    2.0055 H   0  0  0  0  0  0  0  0  0  0  0  0
   29.1826    5.1906    0.2434 H   0  0  0  0  0  0  0  0  0  0  0  0
   30.6799    3.9803    1.2169 C   0  0  0  0  0  0  0  0  0  0  0  0
   30.9242    3.4011    0.3185 H   0  0  0  0  0  0  0  0  0  0  0  0
   30.7593    3.3099    2.0809 H   0  0  0  0  0  0  0  0  0  0  0  0
   31.5884    5.0727    1.3590 O   0  0  0  0  0  0  0  0  0  0  0  0
   32.9413    4.6270    1.4558 C   0  0  0  0  0  0  0  0  0  0  0  0
   33.2197    4.0708    0.5529 H   0  0  0  0  0  0  0  0  0  0  0  0
   33.0565    3.9541    2.3139 H   0  0  0  0  0  0  0  0  0  0  0  0
   33.8542    5.8378    1.6214 C   0  0  0  0  0  0  0  0  0  0  0  0
   33.5715    6.3919    2.5247 H   0  0  0  0  0  0  0  0  0  0  0  0
   33.7322    6.5121    0.7651 H   0  0  0  0  0  0  0  0  0  0  0  0
   35.2138    5.4108    1.7160 O   0  0  0  0  0  0  0  0  0  0  0  0
   36.0927    6.5251    1.8789 C   0  0  0  0  0  0  0  0  0  0  0  0
   35.8321    7.0779    2.7895 H   0  0  0  0  0  0  0  0  0  0  0  0
   35.9886    7.2122    1.0305 H   0  0  0  0  0  0  0  0  0  0  0  0
   37.5346    6.0365    1.9697 C   0  0  0  0  0  0  0  0  0  0  0  0
   37.7994    5.4874    1.0582 H   0  0  0  0  0  0  0  0  0  0  0  0
   37.6425    5.3506    2.8183 H   0  0  0  0  0  0  0  0  0  0  0  0
   38.4003    7.1601    2.1343 O   0  0  0  0  0  0  0  0  0  0  0  0
   39.7682    6.7613    2.2227 C   0  0  0  0  0  0  0  0  0  0  0  0
   40.0633    6.2248    1.3130 H   0  0  0  0  0  0  0  0  0  0  0  0
   39.9084    6.0826    3.0726 H   0  0  0  0  0  0  0  0  0  0  0  0
   40.6423    7.9986    2.3998 C   0  0  0  0  0  0  0  0  0  0  0  0
   40.3455    8.5344    3.3095 H   0  0  0  0  0  0  0  0  0  0  0  0
   40.4993    8.6776    1.5506 H   0  0  0  0  0  0  0  0  0  0  0  0
   42.0129    7.6077    2.4878 O   0  0  0  0  0  0  0  0  0  0  0  0
   42.8649    8.7419    2.6552 C   0  0  0  0  0  0  0  0  0  0  0  0
   42.5927    9.2846    3.5685 H   0  0  0  0  0  0  0  0  0  0  0  0
   42.7455    9.4297    1.8095 H   0  0  0  0  0  0  0  0  0  0  0  0
   44.3155    8.2807    2.7431 C   0  0  0  0  0  0  0  0  0  0  0  0
   44.5890    7.7388    1.8299 H   0  0  0  0  0  0  0  0  0  0  0  0
   44.4362    7.5934    3.5891 H   0  0  0  0  0  0  0  0  0  0  0  0
   45.1631    9.4169    2.9107 O   0  0  0  0  0  0  0  0  0  0  0  0
   46.5352    9.0396    2.9984 C   0  0  0  0  0  0  0  0  0  0  0  0
   46.8355    8.5199    2.0819 H   0  0  0  0  0  0  0  0  0  0  0  0
   46.6817    8.3726    3.8550 H   0  0  0  0  0  0  0  0  0  0  0  0
   47.3669   10.2945    3.1747 C   0  0  0  0  0  0  0  0  0  0  0  0
   47.0656   10.8330    4.0794 H   0  0  0  0  0  0  0  0  0  0  0  0
   47.2170   10.9781    2.3325 H   0  0  0  0  0  0  0  0  0  0  0  0
   48.4306   10.0510    3.2467 H   0  0  0  0  0  0  0  0  0  0  0  0
  2  1  1  0  0  0  0
  3  2  1  0  0  0  0
  4  2  1  0  0  0  0
  5  2  1  0  0  0  0
  6  4  1  0  0  0  0
  7  6  1  0  0  0  0
  8  6  1  0  0  0  0
  9  6  1  0  0  0  0
 10  9  1  0  0  0  0
 11  9  1  0  0  0  0
 12  9  1  0  0  0  0
 13 12  1  0  0  0  0
 14 13  1  0  0  0  0
 15 13  1  0  0  0  0
 16 13  1  0  0  0  0
 17 16  1  0  0  0  0
 18 16  1  0  0  0  0
 19 16  1  0  0  0  0
 20 19  1  0  0  0  0
 21 20  1  0  0  0  0
 22 20  1  0  0  0  0
 23 20  1  0  0  0  0
 24 23  1  0  0  0  0
 25 23  1  0  0  0  0
 26 23  1  0  0  0  0
 27 26  1  0  0  0  0
 28 27  1  0  0  0  0
 29 27  1  0  0  0  0
 30 27  1  0  0  0  0
 31 30  1  0  0  0  0
 32 30  1  0  0  0  0
 33 30  1  0  0  0  0
 34 33  1  0  0  0  0
 35 34  1  0  0  0  0
 36 34  1  0  0  0  0
 37 34  1  0  0  0  0
 38 37  1  0  0  0  0
 39 37  1  0  0  0  0
 40 37  1  0  0  0  0
 41 40  1  0  0  0  0
 42 41  1  0  0  0  0
 43 41  1  0  0  0  0
 44 41  1  0  0  0  0
 45 44  1  0  0  0  0
 46 44  1  0  0  0  0
 47 44  1  0  0  0  0
 48  1  1  0  0  0  0
 49  1  1  0  0  0  0
 50  1  1  0  0  0  0
 51 47  1  0  0  0  0
 52 51  1  0  0  0  0
 53 51  1  0  0  0  0
 54 51  1  0  0  0  0
 55 54  1  0  0  0  0
 56 54  1  0  0  0  0
 57 54  1  0  0  0  0
 58 49  1  0  0  0  0
 59 58  1  0  0  0  0
 60 58  1  0  0  0  0
 61 58  1  0  0  0  0
 62 61  1  0  0  0  0
 63 61  1  0  0  0  0
 64 61  1  0  0  0  0
 65 64  1  0  0  0  0
 66 65  1  0  0  0  0
 67 65  1  0  0  0  0
 68 65  1  0  0  0  0
 69 68  1  0  0  0  0
 70 68  1  0  0  0  0
 71 68  1  0  0  0  0
 72 71  1  0  0  0  0
 73 72  1  0  0  0  0
 74 72  1  0  0  0  0
 75 72  1  0  0  0  0
 76 75  1  0  0  0  0
 77 75  1  0  0  0  0
 78 75  1  0  0  0  0
 79 78  1  0  0  0  0
 80 79  1  0  0  0  0
 81 79  1  0  0  0  0
 82 79  1  0  0  0  0
 83 82  1  0  0  0  0
 84 82  1  0  0  0  0
 85 82  1  0  0  0  0
 86 85  1  0  0  0  0
 87 86  1  0  0  0  0
 88 86  1  0  0  0  0
 89 86  1  0  0  0  0
 90 89  1  0  0  0  0
 91 89  1  0  0  0  0
 92 89  1  0  0  0  0
 93 92  1  0  0  0  0
 94 93  1  0  0  0  0
 95 93  1  0  0  0  0
 96 93  1  0  0  0  0
 97 96  1  0  0  0  0
 98 96  1  0  0  0  0
 99 96  1  0  0  0  0
100 99  1  0  0  0  0
101100  1  0  0  0  0
102100  1  0  0  0  0
103100  1  0  0  0  0
104103  1  0  0  0  0
105103  1  0  0  0  0
106103  1  0  0  0  0
107106  1  0  0  0  0
108107  1  0  0  0  0
109107  1  0  0  0  0
110107  1  0  0  0  0
111110  1  0  0  0  0
112110  1  0  0  0  0
113110  1  0  0  0  0
114113  1  0  0  0  0
115114  1  0  0  0  0
116114  1  0  0  0  0
117114  1  0  0  0  0
118117  1  0  0  0  0
119117  1  0  0  0  0
120117  1  0  0  0  0
121120  1  0  0  0  0
122121  1  0  0  0  0
123121  1  0  0  0  0
124121  1  0  0  0  0
125124  1  0  0  0  0
126124  1  0  0  0  0
127124  1  0  0  0  0
128127  1  0  0  0  0
129128  1  0  0  0  0
130128  1  0  0  0  0
131128  1  0  0  0  0
132131  1  0  0  0  0
133131  1  0  0  0  0
134131  1  0  0  0  0
135134  1  0  0  0  0
136 57  1  0  0  0  0
137136  1  0  0  0  0
138136  1  0  0  0  0
139136  1  0  0  0  0
140139  1  0  0  0  0
141139  1  0  0  0  0
142139  1  0  0  0  0
143142  1  0  0  0  0
144143  1  0  0  0  0
145143  1  0  0  0  0
146143  1  0  0  0  0
147146  1  0  0  0  0
148146  1  0  0  0  0
149146  1  0  0  0  0
150149  1  0  0  0  0
151150  1  0  0  0  0
152150  1  0  0  0  0
153150  1  0  0  0  0
154153  1  0  0  0  0
155153  1  0  0  0  0
156153  1  0  0  0  0
157156  1  0  0  0  0
158157  1  0  0  0  0
159157  1  0  0  0  0
160157  1  0  0  0  0
161160  1  0  0  0  0
162160  1  0  0  0  0
163160  1  0  0  0  0
164163  1  0  0  0  0
165164  1  0  0  0  0
166164  1  0  0  0  0
167164  1  0  0  0  0
168167  1  0  0  0  0
169167  1  0  0  0  0
170167  1  0  0  0  0
171170  1  0  0  0  0
172171  1  0  0  0  0
173171  1  0  0  0  0
174171  1  0  0  0  0
175174  1  0  0  0  0
176174  1  0  0  0  0
177174  1  0  0  0  0
M  END
