
 OpenBabel10311215583D

402426  0  0  0  0  0  0  0  0999 V2000
   -0.5992   -0.4208   -0.2482 C   0  0  0  0  0  0  0  0  0  0  0  0
   -0.3152   -1.2522    0.8447 C   0  0  0  0  0  0  0  0  0  0  0  0
   -0.1215   -0.7104    2.1163 C   0  0  0  0  0  0  0  0  0  0  0  0
   -0.2226    0.6651    2.3117 C   0  0  0  0  0  0  0  0  0  0  0  0
   -0.5255    1.4993    1.2377 C   0  0  0  0  0  0  0  0  0  0  0  0
   -0.7163    0.9595   -0.0351 C   0  0  0  0  0  0  0  0  0  0  0  0
   -0.7202   -0.9873   -1.6452 C   0  0  0  0  0  0  0  0  0  0  0  0
    0.5578   -1.6913   -2.1316 C   0  0  0  0  0  0  0  0  0  0  0  0
    0.7458   -2.5588   -1.4861 H   0  0  0  0  0  0  0  0  0  0  0  0
    1.8039   -0.7787   -2.1280 C   0  0  0  0  0  0  0  0  0  0  0  0
    0.3779   -2.0979   -3.1343 H   0  0  0  0  0  0  0  0  0  0  0  0
    1.8424   -0.2714   -1.1580 H   0  0  0  0  0  0  0  0  0  0  0  0
    1.7535    0.2823   -3.2217 C   0  0  0  0  0  0  0  0  0  0  0  0
    3.0949   -1.6269   -2.2265 C   0  0  0  0  0  0  0  0  0  0  0  0
    3.1643   -2.0786   -3.2241 H   0  0  0  0  0  0  0  0  0  0  0  0
    3.0415   -2.4655   -1.5209 H   0  0  0  0  0  0  0  0  0  0  0  0
    4.3617   -0.7889   -1.9449 C   0  0  0  0  0  0  0  0  0  0  0  0
    4.4811   -0.4014   -0.4726 C   0  0  0  0  0  0  0  0  0  0  0  0
    4.2927    0.1291   -2.5382 H   0  0  0  0  0  0  0  0  0  0  0  0
    5.6209   -1.5353   -2.4331 C   0  0  0  0  0  0  0  0  0  0  0  0
   -0.9959   -0.1971   -2.3538 H   0  0  0  0  0  0  0  0  0  0  0  0
   -1.5504   -1.7044   -1.6533 H   0  0  0  0  0  0  0  0  0  0  0  0
    1.7699   -0.0571   -4.5831 C   0  0  0  0  0  0  0  0  0  0  0  0
    1.7664    1.6413   -2.8702 C   0  0  0  0  0  0  0  0  0  0  0  0
    1.7739   -1.0989   -4.8935 H   0  0  0  0  0  0  0  0  0  0  0  0
    1.8164    0.9352   -5.5643 C   0  0  0  0  0  0  0  0  0  0  0  0
    1.8124    2.6322   -3.8520 C   0  0  0  0  0  0  0  0  0  0  0  0
    1.7701    1.9353   -1.8227 H   0  0  0  0  0  0  0  0  0  0  0  0
    1.8414    2.2789   -5.1986 C   0  0  0  0  0  0  0  0  0  0  0  0
    1.8424    3.6793   -3.5640 H   0  0  0  0  0  0  0  0  0  0  0  0
    1.8495    0.6580   -6.6144 H   0  0  0  0  0  0  0  0  0  0  0  0
    1.8932    3.0496   -5.9625 H   0  0  0  0  0  0  0  0  0  0  0  0
   -0.9311    1.6268   -0.8669 H   0  0  0  0  0  0  0  0  0  0  0  0
   -0.6010    2.5727    1.3881 H   0  0  0  0  0  0  0  0  0  0  0  0
   -0.0601    1.0870    3.2996 H   0  0  0  0  0  0  0  0  0  0  0  0
    0.1212   -1.3614    2.9517 H   0  0  0  0  0  0  0  0  0  0  0  0
   -0.2184   -2.3266    0.7092 H   0  0  0  0  0  0  0  0  0  0  0  0
    4.6449   -1.3632    0.5359 C   0  0  0  0  0  0  0  0  0  0  0  0
    4.4803    0.9548   -0.1098 C   0  0  0  0  0  0  0  0  0  0  0  0
    4.6592   -2.4225    0.2929 H   0  0  0  0  0  0  0  0  0  0  0  0
    4.8162   -0.9785    1.8671 C   0  0  0  0  0  0  0  0  0  0  0  0
    4.6512    1.3381    1.2212 C   0  0  0  0  0  0  0  0  0  0  0  0
    4.3651    1.7242   -0.8699 H   0  0  0  0  0  0  0  0  0  0  0  0
    4.8220    0.3717    2.2089 C   0  0  0  0  0  0  0  0  0  0  0  0
    4.6614    2.3920    1.4844 H   0  0  0  0  0  0  0  0  0  0  0  0
    4.9560   -1.7333    2.6358 H   0  0  0  0  0  0  0  0  0  0  0  0
    4.9656    0.6703    3.2433 H   0  0  0  0  0  0  0  0  0  0  0  0
    5.4565   -1.9180   -3.4481 H   0  0  0  0  0  0  0  0  0  0  0  0
    5.7951   -2.4175   -1.8042 H   0  0  0  0  0  0  0  0  0  0  0  0
    6.8641   -0.6233   -2.4110 C   0  0  0  0  0  0  0  0  0  0  0  0
    6.8941   -0.1231   -1.4371 H   0  0  0  0  0  0  0  0  0  0  0  0
    6.8136    0.4494   -3.4967 C   0  0  0  0  0  0  0  0  0  0  0  0
    8.1460   -1.4703   -2.5089 C   0  0  0  0  0  0  0  0  0  0  0  0
    8.2215   -1.9122   -3.5105 H   0  0  0  0  0  0  0  0  0  0  0  0
    8.0914   -2.3147   -1.8106 H   0  0  0  0  0  0  0  0  0  0  0  0
    9.3972   -0.6243   -2.2116 C   0  0  0  0  0  0  0  0  0  0  0  0
    9.5032   -0.2371   -0.7379 C   0  0  0  0  0  0  0  0  0  0  0  0
    9.3253    0.2955   -2.8017 H   0  0  0  0  0  0  0  0  0  0  0  0
   10.6545   -1.3630   -2.6968 C   0  0  0  0  0  0  0  0  0  0  0  0
   10.4910   -1.7650   -3.7044 H   0  0  0  0  0  0  0  0  0  0  0  0
   10.8450   -2.2315   -2.0538 H   0  0  0  0  0  0  0  0  0  0  0  0
   11.8740   -0.4276   -2.6977 C   0  0  0  0  0  0  0  0  0  0  0  0
    6.8123    0.1224   -4.8619 C   0  0  0  0  0  0  0  0  0  0  0  0
    6.8186    1.1251   -5.8333 C   0  0  0  0  0  0  0  0  0  0  0  0
    6.8118    1.8049   -3.1336 C   0  0  0  0  0  0  0  0  0  0  0  0
    6.8210   -0.9157   -5.1817 H   0  0  0  0  0  0  0  0  0  0  0  0
    6.8186    2.8061   -4.1055 C   0  0  0  0  0  0  0  0  0  0  0  0
    6.8220    2.0897   -2.0832 H   0  0  0  0  0  0  0  0  0  0  0  0
    6.8240    2.4650   -5.4564 C   0  0  0  0  0  0  0  0  0  0  0  0
    6.8287    3.8503   -3.8085 H   0  0  0  0  0  0  0  0  0  0  0  0
    6.8283    0.8578   -6.8869 H   0  0  0  0  0  0  0  0  0  0  0  0
    6.8377    3.2438   -6.2133 H   0  0  0  0  0  0  0  0  0  0  0  0
    9.6452   -1.1984    0.2738 C   0  0  0  0  0  0  0  0  0  0  0  0
    9.5009    1.1198   -0.3759 C   0  0  0  0  0  0  0  0  0  0  0  0
    9.6586   -2.2579    0.0320 H   0  0  0  0  0  0  0  0  0  0  0  0
    9.7893   -0.8128    1.6081 C   0  0  0  0  0  0  0  0  0  0  0  0
    9.6455    1.5039    0.9580 C   0  0  0  0  0  0  0  0  0  0  0  0
    9.4014    1.8890   -1.1384 H   0  0  0  0  0  0  0  0  0  0  0  0
    9.7915    0.5376    1.9495 C   0  0  0  0  0  0  0  0  0  0  0  0
    9.6520    2.5579    1.2206 H   0  0  0  0  0  0  0  0  0  0  0  0
    9.9082   -1.5675    2.3803 H   0  0  0  0  0  0  0  0  0  0  0  0
    9.9116    0.8363    2.9868 H   0  0  0  0  0  0  0  0  0  0  0  0
   11.8976    0.0906   -1.7333 H   0  0  0  0  0  0  0  0  0  0  0  0
   11.8016    0.6257   -3.8017 C   0  0  0  0  0  0  0  0  0  0  0  0
   13.1597   -1.2599   -2.7865 C   0  0  0  0  0  0  0  0  0  0  0  0
   13.2516   -1.6939   -3.7901 H   0  0  0  0  0  0  0  0  0  0  0  0
   13.1097   -2.1102   -2.0949 H   0  0  0  0  0  0  0  0  0  0  0  0
   14.3882   -0.3977   -2.4655 C   0  0  0  0  0  0  0  0  0  0  0  0
   14.4734   -0.0294   -0.9858 C   0  0  0  0  0  0  0  0  0  0  0  0
   14.3073    0.5288   -3.0436 H   0  0  0  0  0  0  0  0  0  0  0  0
   15.6485   -1.1193   -2.9531 C   0  0  0  0  0  0  0  0  0  0  0  0
   15.4975   -1.4988   -3.9716 H   0  0  0  0  0  0  0  0  0  0  0  0
   15.8352   -2.0023   -2.3286 H   0  0  0  0  0  0  0  0  0  0  0  0
   16.8611   -0.1826   -2.9215 C   0  0  0  0  0  0  0  0  0  0  0  0
   11.7817    0.2774   -5.1604 C   0  0  0  0  0  0  0  0  0  0  0  0
   11.7881    1.9877   -3.4600 C   0  0  0  0  0  0  0  0  0  0  0  0
   11.7971   -0.7659   -5.4642 H   0  0  0  0  0  0  0  0  0  0  0  0
   11.7554    1.2636   -6.1486 C   0  0  0  0  0  0  0  0  0  0  0  0
   11.7629    2.9724   -4.4485 C   0  0  0  0  0  0  0  0  0  0  0  0
   11.8103    2.2897   -2.4153 H   0  0  0  0  0  0  0  0  0  0  0  0
   11.7478    2.6102   -5.7926 C   0  0  0  0  0  0  0  0  0  0  0  0
   11.7619    4.0218   -4.1678 H   0  0  0  0  0  0  0  0  0  0  0  0
   11.7473    0.9799   -7.1971 H   0  0  0  0  0  0  0  0  0  0  0  0
   11.7340    3.3765   -6.5623 H   0  0  0  0  0  0  0  0  0  0  0  0
   14.6185   -1.0013    0.0151 C   0  0  0  0  0  0  0  0  0  0  0  0
   14.4371    1.3221   -0.6056 C   0  0  0  0  0  0  0  0  0  0  0  0
   14.6557   -2.0570   -0.2403 H   0  0  0  0  0  0  0  0  0  0  0  0
   14.7306   -0.6313    1.3568 C   0  0  0  0  0  0  0  0  0  0  0  0
   14.5497    1.6907    0.7355 C   0  0  0  0  0  0  0  0  0  0  0  0
   14.3318    2.0993   -1.3592 H   0  0  0  0  0  0  0  0  0  0  0  0
   14.6977    0.7141    1.7164 C   0  0  0  0  0  0  0  0  0  0  0  0
   14.5275    2.7409    1.0124 H   0  0  0  0  0  0  0  0  0  0  0  0
   14.8493   -1.3940    2.1210 H   0  0  0  0  0  0  0  0  0  0  0  0
   14.7906    1.0007    2.7599 H   0  0  0  0  0  0  0  0  0  0  0  0
   18.1327   -1.0214   -3.0719 C   0  0  0  0  0  0  0  0  0  0  0  0
   18.1972   -1.4161   -4.0940 H   0  0  0  0  0  0  0  0  0  0  0  0
   18.0901   -1.8986   -2.4139 H   0  0  0  0  0  0  0  0  0  0  0  0
   19.3740   -0.1873   -2.7468 C   0  0  0  0  0  0  0  0  0  0  0  0
   19.4694    0.1730   -1.2654 C   0  0  0  0  0  0  0  0  0  0  0  0
   19.3090    0.7428   -3.3211 H   0  0  0  0  0  0  0  0  0  0  0  0
   20.6117   -0.9405   -3.2385 C   0  0  0  0  0  0  0  0  0  0  0  0
   20.4383   -1.3514   -4.2410 H   0  0  0  0  0  0  0  0  0  0  0  0
   20.8019   -1.8046   -2.5893 H   0  0  0  0  0  0  0  0  0  0  0  0
   21.8254   -0.0101   -3.2605 C   0  0  0  0  0  0  0  0  0  0  0  0
   16.8963    0.2838   -1.9313 H   0  0  0  0  0  0  0  0  0  0  0  0
   16.7753    0.9260   -3.9684 C   0  0  0  0  0  0  0  0  0  0  0  0
   16.7260    0.6495   -5.3428 C   0  0  0  0  0  0  0  0  0  0  0  0
   16.7677    2.2683   -3.5557 C   0  0  0  0  0  0  0  0  0  0  0  0
   16.7345   -0.3763   -5.7015 H   0  0  0  0  0  0  0  0  0  0  0  0
   16.6743    1.6864   -6.2765 C   0  0  0  0  0  0  0  0  0  0  0  0
   16.7168    3.3037   -4.4898 C   0  0  0  0  0  0  0  0  0  0  0  0
   16.8103    2.5147   -2.4970 H   0  0  0  0  0  0  0  0  0  0  0  0
   16.6708    3.0124   -5.8503 C   0  0  0  0  0  0  0  0  0  0  0  0
   16.7174    4.3368   -4.1542 H   0  0  0  0  0  0  0  0  0  0  0  0
   16.6410    1.4579   -7.3381 H   0  0  0  0  0  0  0  0  0  0  0  0
   16.6348    3.8176   -6.5783 H   0  0  0  0  0  0  0  0  0  0  0  0
   19.5644   -0.8064   -0.2658 C   0  0  0  0  0  0  0  0  0  0  0  0
   19.4788    1.5238   -0.8812 C   0  0  0  0  0  0  0  0  0  0  0  0
   19.5642   -1.8622   -0.5237 H   0  0  0  0  0  0  0  0  0  0  0  0
   19.6672   -0.4445    1.0789 C   0  0  0  0  0  0  0  0  0  0  0  0
   19.5823    1.8843    0.4629 C   0  0  0  0  0  0  0  0  0  0  0  0
   19.4110    2.3066   -1.6333 H   0  0  0  0  0  0  0  0  0  0  0  0
   19.6767    0.9000    1.4427 C   0  0  0  0  0  0  0  0  0  0  0  0
   19.5921    2.9338    0.7431 H   0  0  0  0  0  0  0  0  0  0  0  0
   19.7430   -1.2134    1.8425 H   0  0  0  0  0  0  0  0  0  0  0  0
   19.7597    1.1800    2.4888 H   0  0  0  0  0  0  0  0  0  0  0  0
   21.8597    0.5151   -2.3003 H   0  0  0  0  0  0  0  0  0  0  0  0
   21.7401    1.0358   -4.3706 C   0  0  0  0  0  0  0  0  0  0  0  0
   23.0919   -0.8607   -3.3584 C   0  0  0  0  0  0  0  0  0  0  0  0
   23.1762   -1.2875   -4.3657 H   0  0  0  0  0  0  0  0  0  0  0  0
   23.0343   -1.7165   -2.6741 H   0  0  0  0  0  0  0  0  0  0  0  0
   24.3224   -0.0152   -3.0294 C   0  0  0  0  0  0  0  0  0  0  0  0
   24.3976    0.3594   -1.5503 C   0  0  0  0  0  0  0  0  0  0  0  0
   24.2546    0.9098   -3.6116 H   0  0  0  0  0  0  0  0  0  0  0  0
   25.5668   -0.7639   -3.5043 C   0  0  0  0  0  0  0  0  0  0  0  0
   25.4039   -1.1866   -4.5037 H   0  0  0  0  0  0  0  0  0  0  0  0
   25.7602   -1.6196   -2.8451 H   0  0  0  0  0  0  0  0  0  0  0  0
   26.7709    0.1769   -3.5292 C   0  0  0  0  0  0  0  0  0  0  0  0
   21.6975    0.6801   -5.7267 C   0  0  0  0  0  0  0  0  0  0  0  0
   21.7153    2.3996   -4.0357 C   0  0  0  0  0  0  0  0  0  0  0  0
   21.7174   -0.3646   -6.0256 H   0  0  0  0  0  0  0  0  0  0  0  0
   21.6339    1.6604   -6.7190 C   0  0  0  0  0  0  0  0  0  0  0  0
   21.6516    3.3783   -5.0283 C   0  0  0  0  0  0  0  0  0  0  0  0
   21.7503    2.7074   -2.9932 H   0  0  0  0  0  0  0  0  0  0  0  0
   21.6114    3.0087   -6.3697 C   0  0  0  0  0  0  0  0  0  0  0  0
   21.6357    4.4290   -4.7528 H   0  0  0  0  0  0  0  0  0  0  0  0
   21.6044    1.3709   -7.7655 H   0  0  0  0  0  0  0  0  0  0  0  0
   21.5640    3.7702   -7.1427 H   0  0  0  0  0  0  0  0  0  0  0  0
   24.5008   -0.6094   -0.5412 C   0  0  0  0  0  0  0  0  0  0  0  0
   24.3721    1.7133   -1.1775 C   0  0  0  0  0  0  0  0  0  0  0  0
   24.5249   -1.6670   -0.7899 H   0  0  0  0  0  0  0  0  0  0  0  0
   24.5778   -0.2343    0.8016 C   0  0  0  0  0  0  0  0  0  0  0  0
   24.4494    2.0869    0.1648 C   0  0  0  0  0  0  0  0  0  0  0  0
   24.2946    2.4882   -1.9369 H   0  0  0  0  0  0  0  0  0  0  0  0
   24.5525    1.1130    1.1541 C   0  0  0  0  0  0  0  0  0  0  0  0
   24.4305    3.1385    0.4365 H   0  0  0  0  0  0  0  0  0  0  0  0
   24.6592   -0.9951    1.5726 H   0  0  0  0  0  0  0  0  0  0  0  0
   24.6141    1.4032    2.1989 H   0  0  0  0  0  0  0  0  0  0  0  0
   26.8026    0.7002   -2.5678 H   0  0  0  0  0  0  0  0  0  0  0  0
   26.6725    1.2241   -4.6371 C   0  0  0  0  0  0  0  0  0  0  0  0
   28.0402   -0.6666   -3.6346 C   0  0  0  0  0  0  0  0  0  0  0  0
   28.1245   -1.0866   -4.6449 H   0  0  0  0  0  0  0  0  0  0  0  0
   27.9881   -1.5273   -2.9559 H   0  0  0  0  0  0  0  0  0  0  0  0
   29.2664    0.1819   -3.3023 C   0  0  0  0  0  0  0  0  0  0  0  0
   29.3347    0.5573   -1.8230 C   0  0  0  0  0  0  0  0  0  0  0  0
   29.1968    1.1063   -3.8853 H   0  0  0  0  0  0  0  0  0  0  0  0
   30.5117   -0.5671   -3.7733 C   0  0  0  0  0  0  0  0  0  0  0  0
   30.3494   -0.9957   -4.7703 H   0  0  0  0  0  0  0  0  0  0  0  0
   30.7067   -1.4188   -3.1094 H   0  0  0  0  0  0  0  0  0  0  0  0
   31.7140    0.3750   -3.8044 C   0  0  0  0  0  0  0  0  0  0  0  0
   26.6167    0.8703   -5.9933 C   0  0  0  0  0  0  0  0  0  0  0  0
   26.6404    2.5871   -4.2997 C   0  0  0  0  0  0  0  0  0  0  0  0
   26.6401   -0.1737   -6.2943 H   0  0  0  0  0  0  0  0  0  0  0  0
   26.5318    1.8516   -6.9830 C   0  0  0  0  0  0  0  0  0  0  0  0
   26.5556    3.5669   -5.2896 C   0  0  0  0  0  0  0  0  0  0  0  0
   26.6831    2.8933   -3.2569 H   0  0  0  0  0  0  0  0  0  0  0  0
   26.5014    3.1990   -6.6311 C   0  0  0  0  0  0  0  0  0  0  0  0
   26.5327    4.6169   -5.0121 H   0  0  0  0  0  0  0  0  0  0  0  0
   26.4901    1.5634   -8.0294 H   0  0  0  0  0  0  0  0  0  0  0  0
   26.4361    3.9613   -7.4021 H   0  0  0  0  0  0  0  0  0  0  0  0
   29.4305   -0.4110   -0.8127 C   0  0  0  0  0  0  0  0  0  0  0  0
   29.3021    1.9112   -1.4508 C   0  0  0  0  0  0  0  0  0  0  0  0
   29.4585   -1.4687   -1.0608 H   0  0  0  0  0  0  0  0  0  0  0  0
   29.4922   -0.0356    0.5308 C   0  0  0  0  0  0  0  0  0  0  0  0
   29.3639    2.2851   -0.1078 C   0  0  0  0  0  0  0  0  0  0  0  0
   29.2284    2.6856   -2.2109 H   0  0  0  0  0  0  0  0  0  0  0  0
   29.3379    3.3367    0.1635 H   0  0  0  0  0  0  0  0  0  0  0  0
   29.4590    1.3117    0.8827 C   0  0  0  0  0  0  0  0  0  0  0  0
   29.5665   -0.7961    1.3028 H   0  0  0  0  0  0  0  0  0  0  0  0
   29.5072    1.6022    1.9282 H   0  0  0  0  0  0  0  0  0  0  0  0
   31.7476    0.8984   -2.8430 H   0  0  0  0  0  0  0  0  0  0  0  0
   31.6071    1.4218   -4.9118 C   0  0  0  0  0  0  0  0  0  0  0  0
   32.9833   -0.4682   -3.9164 C   0  0  0  0  0  0  0  0  0  0  0  0
   33.0666   -0.8824   -4.9291 H   0  0  0  0  0  0  0  0  0  0  0  0
   32.9318   -1.3329   -3.2427 H   0  0  0  0  0  0  0  0  0  0  0  0
   34.2108    0.3771   -3.5802 C   0  0  0  0  0  0  0  0  0  0  0  0
   34.2718    0.7530   -2.1008 C   0  0  0  0  0  0  0  0  0  0  0  0
   34.1428    1.3012   -4.1639 H   0  0  0  0  0  0  0  0  0  0  0  0
   35.4574   -0.3749   -4.0460 C   0  0  0  0  0  0  0  0  0  0  0  0
   35.2953   -0.8093   -5.0406 H   0  0  0  0  0  0  0  0  0  0  0  0
   35.6524   -1.2227   -3.3772 H   0  0  0  0  0  0  0  0  0  0  0  0
   36.6610    0.5663   -4.0825 C   0  0  0  0  0  0  0  0  0  0  0  0
   31.5410    1.0675   -6.2675 C   0  0  0  0  0  0  0  0  0  0  0  0
   31.5697    2.7846   -4.5742 C   0  0  0  0  0  0  0  0  0  0  0  0
   31.5665    0.0236   -6.5685 H   0  0  0  0  0  0  0  0  0  0  0  0
   31.4401    2.0482   -7.2563 C   0  0  0  0  0  0  0  0  0  0  0  0
   31.4687    3.7637   -5.5634 C   0  0  0  0  0  0  0  0  0  0  0  0
   31.6183    3.0912   -3.5318 H   0  0  0  0  0  0  0  0  0  0  0  0
   31.4038    3.3953   -6.9042 C   0  0  0  0  0  0  0  0  0  0  0  0
   31.4402    4.8135   -5.2856 H   0  0  0  0  0  0  0  0  0  0  0  0
   31.3891    1.7595   -8.3022 H   0  0  0  0  0  0  0  0  0  0  0  0
   31.3247    4.1570   -7.6745 H   0  0  0  0  0  0  0  0  0  0  0  0
   34.3576   -0.2153   -1.0896 C   0  0  0  0  0  0  0  0  0  0  0  0
   34.2341    2.1068   -1.7289 C   0  0  0  0  0  0  0  0  0  0  0  0
   34.3876   -1.2731   -1.3373 H   0  0  0  0  0  0  0  0  0  0  0  0
   34.4031    0.1600    0.2546 C   0  0  0  0  0  0  0  0  0  0  0  0
   34.2795    2.4806   -0.3852 C   0  0  0  0  0  0  0  0  0  0  0  0
   34.1658    2.8811   -2.4896 H   0  0  0  0  0  0  0  0  0  0  0  0
   34.3638    1.5072    0.6063 C   0  0  0  0  0  0  0  0  0  0  0  0
   34.2475    3.5320   -0.1140 H   0  0  0  0  0  0  0  0  0  0  0  0
   34.4680   -0.6005    1.0274 H   0  0  0  0  0  0  0  0  0  0  0  0
   34.3980    1.7975    1.6524 H   0  0  0  0  0  0  0  0  0  0  0  0
   36.6965    1.0886   -3.1207 H   0  0  0  0  0  0  0  0  0  0  0  0
   36.5458    1.6140   -5.1883 C   0  0  0  0  0  0  0  0  0  0  0  0
   37.9328   -0.2749   -4.2018 C   0  0  0  0  0  0  0  0  0  0  0  0
   38.0159   -0.6827   -5.2171 H   0  0  0  0  0  0  0  0  0  0  0  0
   37.8825   -1.1437   -3.5332 H   0  0  0  0  0  0  0  0  0  0  0  0
   39.1620    0.5691   -3.8621 C   0  0  0  0  0  0  0  0  0  0  0  0
   39.2145    0.9460   -2.3826 C   0  0  0  0  0  0  0  0  0  0  0  0
   39.0935    1.4926   -4.4465 H   0  0  0  0  0  0  0  0  0  0  0  0
   40.4148   -0.1807   -4.3215 C   0  0  0  0  0  0  0  0  0  0  0  0
   40.2548   -0.6227   -5.3130 H   0  0  0  0  0  0  0  0  0  0  0  0
   40.6138   -1.0227   -3.6465 H   0  0  0  0  0  0  0  0  0  0  0  0
   41.6171    0.7653   -4.3639 C   0  0  0  0  0  0  0  0  0  0  0  0
   36.4690    1.2606   -6.5435 C   0  0  0  0  0  0  0  0  0  0  0  0
   36.5032    2.9762   -4.8489 C   0  0  0  0  0  0  0  0  0  0  0  0
   36.4965    0.2170   -6.8456 H   0  0  0  0  0  0  0  0  0  0  0  0
   36.3512    2.2414   -7.5303 C   0  0  0  0  0  0  0  0  0  0  0  0
   36.3852    3.9555   -5.8361 C   0  0  0  0  0  0  0  0  0  0  0  0
   36.5578    3.2821   -3.8066 H   0  0  0  0  0  0  0  0  0  0  0  0
   36.3089    3.5879   -7.1765 C   0  0  0  0  0  0  0  0  0  0  0  0
   36.3508    5.0048   -5.5569 H   0  0  0  0  0  0  0  0  0  0  0  0
   36.2904    1.9533   -8.5759 H   0  0  0  0  0  0  0  0  0  0  0  0
   36.2153    4.3496   -7.9451 H   0  0  0  0  0  0  0  0  0  0  0  0
   39.2904   -0.0220   -1.3703 C   0  0  0  0  0  0  0  0  0  0  0  0
   39.1701    2.2998   -2.0114 C   0  0  0  0  0  0  0  0  0  0  0  0
   39.3237   -1.0798   -1.6176 H   0  0  0  0  0  0  0  0  0  0  0  0
   39.3184    0.3534   -0.0257 C   0  0  0  0  0  0  0  0  0  0  0  0
   39.1978    2.6738   -0.6672 C   0  0  0  0  0  0  0  0  0  0  0  0
   39.1074    3.0738   -2.7729 H   0  0  0  0  0  0  0  0  0  0  0  0
   39.2715    1.7005    0.3253 C   0  0  0  0  0  0  0  0  0  0  0  0
   39.1589    3.7251   -0.3965 H   0  0  0  0  0  0  0  0  0  0  0  0
   39.3741   -0.4070    0.7479 H   0  0  0  0  0  0  0  0  0  0  0  0
   39.2905    1.9909    1.3718 H   0  0  0  0  0  0  0  0  0  0  0  0
   41.6500    1.2882   -3.4023 H   0  0  0  0  0  0  0  0  0  0  0  0
   41.4895    1.8119   -5.4693 C   0  0  0  0  0  0  0  0  0  0  0  0
   42.8986   -0.0648   -4.4879 C   0  0  0  0  0  0  0  0  0  0  0  0
   42.9897   -0.4607   -5.5071 H   0  0  0  0  0  0  0  0  0  0  0  0
   42.8512   -0.9410   -3.8289 H   0  0  0  0  0  0  0  0  0  0  0  0
   44.1249    0.7830   -4.1335 C   0  0  0  0  0  0  0  0  0  0  0  0
   44.1590    1.1487   -2.6510 C   0  0  0  0  0  0  0  0  0  0  0  0
   44.0530    1.7098   -4.7124 H   0  0  0  0  0  0  0  0  0  0  0  0
   45.3907    0.0461   -4.5885 C   0  0  0  0  0  0  0  0  0  0  0  0
   45.2451   -0.3689   -5.5940 H   0  0  0  0  0  0  0  0  0  0  0  0
   45.5780   -0.8139   -3.9332 H   0  0  0  0  0  0  0  0  0  0  0  0
   46.6038    0.9849   -4.5875 C   0  0  0  0  0  0  0  0  0  0  0  0
   41.3989    1.4564   -6.8233 C   0  0  0  0  0  0  0  0  0  0  0  0
   41.4398    3.1740   -5.1307 C   0  0  0  0  0  0  0  0  0  0  0  0
   41.4295    0.4126   -7.1244 H   0  0  0  0  0  0  0  0  0  0  0  0
   41.2589    2.4351   -7.8093 C   0  0  0  0  0  0  0  0  0  0  0  0
   41.2999    4.1511   -6.1171 C   0  0  0  0  0  0  0  0  0  0  0  0
   41.5027    3.4812   -4.0893 H   0  0  0  0  0  0  0  0  0  0  0  0
   41.2088    3.7815   -7.4561 C   0  0  0  0  0  0  0  0  0  0  0  0
   41.2585    5.2002   -5.8382 H   0  0  0  0  0  0  0  0  0  0  0  0
   41.1850    2.1454   -8.8535 H   0  0  0  0  0  0  0  0  0  0  0  0
   41.0963    4.5416   -8.2238 H   0  0  0  0  0  0  0  0  0  0  0  0
   44.2369    0.1733   -1.6459 C   0  0  0  0  0  0  0  0  0  0  0  0
   44.0860    2.4982   -2.2691 C   0  0  0  0  0  0  0  0  0  0  0  0
   44.2897   -0.8816   -1.9018 H   0  0  0  0  0  0  0  0  0  0  0  0
   44.2379    0.5376   -0.2980 C   0  0  0  0  0  0  0  0  0  0  0  0
   44.0866    2.8610   -0.9216 C   0  0  0  0  0  0  0  0  0  0  0  0
   44.0185    3.2774   -3.0249 H   0  0  0  0  0  0  0  0  0  0  0  0
   44.1618    1.8806    0.0637 C   0  0  0  0  0  0  0  0  0  0  0  0
   44.0234    3.9091   -0.6427 H   0  0  0  0  0  0  0  0  0  0  0  0
   44.2934   -0.2284    0.4702 H   0  0  0  0  0  0  0  0  0  0  0  0
   44.1581    2.1622    1.1127 H   0  0  0  0  0  0  0  0  0  0  0  0
   47.8840    0.1560   -4.7732 C   0  0  0  0  0  0  0  0  0  0  0  0
   47.9490   -0.2022   -5.8085 H   0  0  0  0  0  0  0  0  0  0  0  0
   47.8441   -0.7436   -4.1460 H   0  0  0  0  0  0  0  0  0  0  0  0
   49.1331    0.9777   -4.4220 C   0  0  0  0  0  0  0  0  0  0  0  0
   49.1736    1.3453   -2.9402 C   0  0  0  0  0  0  0  0  0  0  0  0
   49.0728    1.9045   -5.0023 H   0  0  0  0  0  0  0  0  0  0  0  0
   50.3957    0.2214   -4.8728 C   0  0  0  0  0  0  0  0  0  0  0  0
   50.2319   -0.2301   -5.8593 H   0  0  0  0  0  0  0  0  0  0  0  0
   50.5945   -0.6134   -4.1891 H   0  0  0  0  0  0  0  0  0  0  0  0
   51.6140    1.1598   -4.9270 C   0  0  0  0  0  0  0  0  0  0  0  0
   46.6463    1.4486   -3.5962 H   0  0  0  0  0  0  0  0  0  0  0  0
   46.4686    2.0946   -5.6281 C   0  0  0  0  0  0  0  0  0  0  0  0
   46.3543    1.8184   -6.9987 C   0  0  0  0  0  0  0  0  0  0  0  0
   46.4224    3.4342   -5.2096 C   0  0  0  0  0  0  0  0  0  0  0  0
   46.3796    0.7941   -7.3606 H   0  0  0  0  0  0  0  0  0  0  0  0
   46.1914    2.8527   -7.9224 C   0  0  0  0  0  0  0  0  0  0  0  0
   46.2597    4.4671   -6.1337 C   0  0  0  0  0  0  0  0  0  0  0  0
   46.5011    3.6796   -4.1527 H   0  0  0  0  0  0  0  0  0  0  0  0
   46.1427    4.1759   -7.4901 C   0  0  0  0  0  0  0  0  0  0  0  0
   46.2180    5.4976   -5.7929 H   0  0  0  0  0  0  0  0  0  0  0  0
   46.0959    2.6241   -8.9801 H   0  0  0  0  0  0  0  0  0  0  0  0
   46.0099    4.9787   -8.2095 H   0  0  0  0  0  0  0  0  0  0  0  0
   49.2009    0.3688   -1.9335 C   0  0  0  0  0  0  0  0  0  0  0  0
   49.1421    2.6969   -2.5606 C   0  0  0  0  0  0  0  0  0  0  0  0
   49.2195   -0.6876   -2.1881 H   0  0  0  0  0  0  0  0  0  0  0  0
   49.1872    0.7341   -0.5859 C   0  0  0  0  0  0  0  0  0  0  0  0
   49.1283    3.0608   -1.2135 C   0  0  0  0  0  0  0  0  0  0  0  0
   49.1124    3.4770   -3.3180 H   0  0  0  0  0  0  0  0  0  0  0  0
   49.1488    2.0793   -0.2264 C   0  0  0  0  0  0  0  0  0  0  0  0
   49.0936    4.1105   -0.9362 H   0  0  0  0  0  0  0  0  0  0  0  0
   49.1986   -0.0327    0.1834 H   0  0  0  0  0  0  0  0  0  0  0  0
   49.1305    2.3618    0.8222 H   0  0  0  0  0  0  0  0  0  0  0  0
   51.6563    1.6738   -3.9610 H   0  0  0  0  0  0  0  0  0  0  0  0
   51.4628    2.2137   -6.0220 C   0  0  0  0  0  0  0  0  0  0  0  0
   52.9111    0.3406   -5.0796 C   0  0  0  0  0  0  0  0  0  0  0  0
   52.9925   -0.0427   -6.1043 H   0  0  0  0  0  0  0  0  0  0  0  0
   52.8732   -0.5431   -4.4303 H   0  0  0  0  0  0  0  0  0  0  0  0
   54.1543    1.1865   -4.7351 C   0  0  0  0  0  0  0  0  0  0  0  0
   54.1730    1.5700   -3.2569 C   0  0  0  0  0  0  0  0  0  0  0  0
   54.0807    2.1050   -5.3269 H   0  0  0  0  0  0  0  0  0  0  0  0
   55.4424    0.4523   -5.1665 C   0  0  0  0  0  0  0  0  0  0  0  0
   55.2942   -0.0075   -6.1517 H   0  0  0  0  0  0  0  0  0  0  0  0
   55.6461   -0.3760   -4.4764 H   0  0  0  0  0  0  0  0  0  0  0  0
   56.6623    1.4029   -5.2155 C   0  0  0  0  0  0  0  0  0  0  0  0
   51.3445    1.8648   -7.3757 C   0  0  0  0  0  0  0  0  0  0  0  0
   51.3977    3.5722   -5.6728 C   0  0  0  0  0  0  0  0  0  0  0  0
   51.3828    0.8232   -7.6836 H   0  0  0  0  0  0  0  0  0  0  0  0
   51.1576    2.8464   -8.3508 C   0  0  0  0  0  0  0  0  0  0  0  0
   51.2099    4.5522   -6.6484 C   0  0  0  0  0  0  0  0  0  0  0  0
   51.4773    3.8734   -4.6308 H   0  0  0  0  0  0  0  0  0  0  0  0
   51.0882    4.1890   -7.9869 C   0  0  0  0  0  0  0  0  0  0  0  0
   51.1500    5.5981   -6.3610 H   0  0  0  0  0  0  0  0  0  0  0  0
   51.0579    2.5614   -9.3943 H   0  0  0  0  0  0  0  0  0  0  0  0
   50.9342    4.9510   -8.7455 H   0  0  0  0  0  0  0  0  0  0  0  0
   54.2119    0.6028   -2.2411 C   0  0  0  0  0  0  0  0  0  0  0  0
   54.0959    2.9229   -2.8899 C   0  0  0  0  0  0  0  0  0  0  0  0
   54.2630   -0.4549   -2.4860 H   0  0  0  0  0  0  0  0  0  0  0  0
   54.1622    0.9781   -0.8971 C   0  0  0  0  0  0  0  0  0  0  0  0
   54.0461    3.2967   -1.5462 C   0  0  0  0  0  0  0  0  0  0  0  0
   54.0535    3.6954   -3.6545 H   0  0  0  0  0  0  0  0  0  0  0  0
   54.0765    2.3243   -0.5502 C   0  0  0  0  0  0  0  0  0  0  0  0
   53.9726    4.3469   -1.2783 H   0  0  0  0  0  0  0  0  0  0  0  0
   54.1794    0.2180   -0.1212 H   0  0  0  0  0  0  0  0  0  0  0  0
   54.0272    2.6143    0.4954 H   0  0  0  0  0  0  0  0  0  0  0  0
   56.7040    1.9011   -4.2412 H   0  0  0  0  0  0  0  0  0  0  0  0
   56.4911    2.4687   -6.2934 C   0  0  0  0  0  0  0  0  0  0  0  0
   57.9687    0.5957   -5.3936 C   0  0  0  0  0  0  0  0  0  0  0  0
   58.0593    0.2452   -6.4296 H   0  0  0  0  0  0  0  0  0  0  0  0
   57.9185   -0.3111   -4.7766 H   0  0  0  0  0  0  0  0  0  0  0  0
   59.2357    1.3963   -5.0097 C   0  0  0  0  0  0  0  0  0  0  0  0
   59.2201    1.8106   -3.5444 C   0  0  0  0  0  0  0  0  0  0  0  0
   59.2736    2.2994   -5.6326 H   0  0  0  0  0  0  0  0  0  0  0  0
   60.4936    0.5860   -5.3379 C   0  0  0  0  0  0  0  0  0  0  0  0
   60.5411    0.3706   -6.4109 H   0  0  0  0  0  0  0  0  0  0  0  0
   60.5149   -0.3715   -4.8062 H   0  0  0  0  0  0  0  0  0  0  0  0
   61.3984    1.1407   -5.0667 H   0  0  0  0  0  0  0  0  0  0  0  0
   56.3363    2.1323   -7.6471 C   0  0  0  0  0  0  0  0  0  0  0  0
   56.4120    3.8211   -5.9264 C   0  0  0  0  0  0  0  0  0  0  0  0
   56.3776    1.0943   -7.9675 H   0  0  0  0  0  0  0  0  0  0  0  0
   56.0935    3.1195   -8.6039 C   0  0  0  0  0  0  0  0  0  0  0  0
   56.1686    4.8071   -6.8840 C   0  0  0  0  0  0  0  0  0  0  0  0
   56.5111    4.1116   -4.8827 H   0  0  0  0  0  0  0  0  0  0  0  0
   56.0062    4.4559   -8.2217 C   0  0  0  0  0  0  0  0  0  0  0  0
   56.0898    5.8479   -6.5824 H   0  0  0  0  0  0  0  0  0  0  0  0
   55.9568    2.8428   -9.6457 H   0  0  0  0  0  0  0  0  0  0  0  0
   55.8020    5.2216   -8.9648 H   0  0  0  0  0  0  0  0  0  0  0  0
   59.1822    0.8623   -2.5098 C   0  0  0  0  0  0  0  0  0  0  0  0
   59.0823    1.2652   -1.1770 C   0  0  0  0  0  0  0  0  0  0  0  0
   59.1708    3.1719   -3.2073 C   0  0  0  0  0  0  0  0  0  0  0  0
   59.2077   -0.2011   -2.7336 H   0  0  0  0  0  0  0  0  0  0  0  0
   59.0679    3.5730   -1.8741 C   0  0  0  0  0  0  0  0  0  0  0  0
   59.1851    3.9310   -3.9864 H   0  0  0  0  0  0  0  0  0  0  0  0
   59.0209    2.6196   -0.8596 C   0  0  0  0  0  0  0  0  0  0  0  0
   59.0111    4.6298   -1.6287 H   0  0  0  0  0  0  0  0  0  0  0  0
   59.0385    0.5198   -0.3875 H   0  0  0  0  0  0  0  0  0  0  0  0
   58.9290    2.9317    0.1769 H   0  0  0  0  0  0  0  0  0  0  0  0
  1  2  2  0  0  0  0
  1  6  1  0  0  0  0
  1  7  1  0  0  0  0
  2  3  1  0  0  0  0
  3  4  2  0  0  0  0
  4  5  1  0  0  0  0
  5  6  2  0  0  0  0
  7  8  1  0  0  0  0
  9  8  1  0  0  0  0
 10  8  1  0  0  0  0
 11  8  1  0  0  0  0
 12 10  1  0  0  0  0
 13 10  1  0  0  0  0
 14 10  1  0  0  0  0
 15 14  1  0  0  0  0
 16 14  1  0  0  0  0
 17 14  1  0  0  0  0
 18 17  1  0  0  0  0
 19 17  1  0  0  0  0
 20 17  1  0  0  0  0
 21  7  1  0  0  0  0
 22  7  1  0  0  0  0
 23 13  2  0  0  0  0
 24 13  1  0  0  0  0
 25 23  1  0  0  0  0
 26 23  1  0  0  0  0
 26 29  2  0  0  0  0
 27 24  2  0  0  0  0
 28 24  1  0  0  0  0
 29 27  1  0  0  0  0
 30 27  1  0  0  0  0
 31 26  1  0  0  0  0
 32 29  1  0  0  0  0
 33  6  1  0  0  0  0
 34  5  1  0  0  0  0
 35  4  1  0  0  0  0
 36  3  1  0  0  0  0
 37  2  1  0  0  0  0
 38 18  2  0  0  0  0
 39 18  1  0  0  0  0
 40 38  1  0  0  0  0
 41 38  1  0  0  0  0
 42 39  2  0  0  0  0
 43 39  1  0  0  0  0
 44 42  1  0  0  0  0
 44 41  2  0  0  0  0
 45 42  1  0  0  0  0
 46 41  1  0  0  0  0
 47 44  1  0  0  0  0
 48 20  1  0  0  0  0
 49 20  1  0  0  0  0
 50 20  1  0  0  0  0
 51 50  1  0  0  0  0
 52 50  1  0  0  0  0
 53 50  1  0  0  0  0
 54 53  1  0  0  0  0
 55 53  1  0  0  0  0
 56 53  1  0  0  0  0
 57 56  1  0  0  0  0
 58 56  1  0  0  0  0
 59 56  1  0  0  0  0
 60 59  1  0  0  0  0
 61 59  1  0  0  0  0
 62 59  1  0  0  0  0
 63 52  2  0  0  0  0
 64 63  1  0  0  0  0
 65 52  1  0  0  0  0
 66 63  1  0  0  0  0
 67 65  2  0  0  0  0
 68 65  1  0  0  0  0
 69 67  1  0  0  0  0
 69 64  2  0  0  0  0
 70 67  1  0  0  0  0
 71 64  1  0  0  0  0
 72 69  1  0  0  0  0
 73 57  2  0  0  0  0
 74 57  1  0  0  0  0
 75 73  1  0  0  0  0
 76 73  1  0  0  0  0
 77 74  2  0  0  0  0
 78 74  1  0  0  0  0
 79 77  1  0  0  0  0
 79 76  2  0  0  0  0
 80 77  1  0  0  0  0
 81 76  1  0  0  0  0
 82 79  1  0  0  0  0
 83 62  1  0  0  0  0
 84 62  1  0  0  0  0
 85 62  1  0  0  0  0
 86 85  1  0  0  0  0
 87 85  1  0  0  0  0
 88 85  1  0  0  0  0
 89 88  1  0  0  0  0
 90 88  1  0  0  0  0
 91 88  1  0  0  0  0
 92 91  1  0  0  0  0
 93 91  1  0  0  0  0
 94 91  1  0  0  0  0
 95 84  2  0  0  0  0
 96 84  1  0  0  0  0
 97 95  1  0  0  0  0
 98 95  1  0  0  0  0
 99 96  2  0  0  0  0
100 96  1  0  0  0  0
101 99  1  0  0  0  0
101 98  2  0  0  0  0
102 99  1  0  0  0  0
103 98  1  0  0  0  0
104101  1  0  0  0  0
105 89  2  0  0  0  0
106 89  1  0  0  0  0
107105  1  0  0  0  0
108105  1  0  0  0  0
109106  2  0  0  0  0
110106  1  0  0  0  0
111109  1  0  0  0  0
111108  2  0  0  0  0
112109  1  0  0  0  0
113108  1  0  0  0  0
114111  1  0  0  0  0
115 94  1  0  0  0  0
116115  1  0  0  0  0
117115  1  0  0  0  0
118115  1  0  0  0  0
119118  1  0  0  0  0
120118  1  0  0  0  0
121118  1  0  0  0  0
122121  1  0  0  0  0
123121  1  0  0  0  0
124121  1  0  0  0  0
125 94  1  0  0  0  0
126 94  1  0  0  0  0
127126  2  0  0  0  0
128126  1  0  0  0  0
129127  1  0  0  0  0
130127  1  0  0  0  0
131128  2  0  0  0  0
132128  1  0  0  0  0
133131  1  0  0  0  0
133130  2  0  0  0  0
134131  1  0  0  0  0
135130  1  0  0  0  0
136133  1  0  0  0  0
137119  2  0  0  0  0
138119  1  0  0  0  0
139137  1  0  0  0  0
140137  1  0  0  0  0
141138  2  0  0  0  0
142138  1  0  0  0  0
143141  1  0  0  0  0
143140  2  0  0  0  0
144141  1  0  0  0  0
145140  1  0  0  0  0
146143  1  0  0  0  0
147124  1  0  0  0  0
148124  1  0  0  0  0
149124  1  0  0  0  0
150149  1  0  0  0  0
151149  1  0  0  0  0
152149  1  0  0  0  0
153152  1  0  0  0  0
154152  1  0  0  0  0
155152  1  0  0  0  0
156155  1  0  0  0  0
157155  1  0  0  0  0
158155  1  0  0  0  0
159148  2  0  0  0  0
160148  1  0  0  0  0
161159  1  0  0  0  0
162159  1  0  0  0  0
163160  2  0  0  0  0
164160  1  0  0  0  0
165163  1  0  0  0  0
165162  2  0  0  0  0
166163  1  0  0  0  0
167162  1  0  0  0  0
168165  1  0  0  0  0
169153  2  0  0  0  0
170153  1  0  0  0  0
171169  1  0  0  0  0
172169  1  0  0  0  0
173170  2  0  0  0  0
174170  1  0  0  0  0
175173  1  0  0  0  0
175172  2  0  0  0  0
176173  1  0  0  0  0
177172  1  0  0  0  0
178175  1  0  0  0  0
179158  1  0  0  0  0
180158  1  0  0  0  0
181158  1  0  0  0  0
182181  1  0  0  0  0
183181  1  0  0  0  0
184181  1  0  0  0  0
185184  1  0  0  0  0
186184  1  0  0  0  0
187184  1  0  0  0  0
188187  1  0  0  0  0
189187  1  0  0  0  0
190187  1  0  0  0  0
191180  2  0  0  0  0
192180  1  0  0  0  0
193191  1  0  0  0  0
194191  1  0  0  0  0
195192  2  0  0  0  0
196192  1  0  0  0  0
197195  1  0  0  0  0
197194  2  0  0  0  0
198195  1  0  0  0  0
199194  1  0  0  0  0
200197  1  0  0  0  0
201185  2  0  0  0  0
202185  1  0  0  0  0
203201  1  0  0  0  0
204201  1  0  0  0  0
205202  2  0  0  0  0
206202  1  0  0  0  0
207205  1  0  0  0  0
208205  1  0  0  0  0
208204  2  0  0  0  0
209204  1  0  0  0  0
210208  1  0  0  0  0
211190  1  0  0  0  0
212190  1  0  0  0  0
213190  1  0  0  0  0
214213  1  0  0  0  0
215213  1  0  0  0  0
216213  1  0  0  0  0
217216  1  0  0  0  0
218216  1  0  0  0  0
219216  1  0  0  0  0
220219  1  0  0  0  0
221219  1  0  0  0  0
222219  1  0  0  0  0
223212  2  0  0  0  0
224212  1  0  0  0  0
225223  1  0  0  0  0
226223  1  0  0  0  0
227224  2  0  0  0  0
228224  1  0  0  0  0
229227  1  0  0  0  0
229226  2  0  0  0  0
230227  1  0  0  0  0
231226  1  0  0  0  0
232229  1  0  0  0  0
233217  2  0  0  0  0
234217  1  0  0  0  0
235233  1  0  0  0  0
236233  1  0  0  0  0
237234  2  0  0  0  0
238234  1  0  0  0  0
239237  1  0  0  0  0
239236  2  0  0  0  0
240237  1  0  0  0  0
241236  1  0  0  0  0
242239  1  0  0  0  0
243222  1  0  0  0  0
244222  1  0  0  0  0
245222  1  0  0  0  0
246245  1  0  0  0  0
247245  1  0  0  0  0
248245  1  0  0  0  0
249248  1  0  0  0  0
250248  1  0  0  0  0
251248  1  0  0  0  0
252251  1  0  0  0  0
253251  1  0  0  0  0
254251  1  0  0  0  0
255244  2  0  0  0  0
256244  1  0  0  0  0
257255  1  0  0  0  0
258255  1  0  0  0  0
259256  2  0  0  0  0
260256  1  0  0  0  0
261259  1  0  0  0  0
261258  2  0  0  0  0
262259  1  0  0  0  0
263258  1  0  0  0  0
264261  1  0  0  0  0
265249  2  0  0  0  0
266249  1  0  0  0  0
267265  1  0  0  0  0
268265  1  0  0  0  0
269266  2  0  0  0  0
270266  1  0  0  0  0
271269  1  0  0  0  0
271268  2  0  0  0  0
272269  1  0  0  0  0
273268  1  0  0  0  0
274271  1  0  0  0  0
275254  1  0  0  0  0
276254  1  0  0  0  0
277254  1  0  0  0  0
278277  1  0  0  0  0
279277  1  0  0  0  0
280277  1  0  0  0  0
281280  1  0  0  0  0
282280  1  0  0  0  0
283280  1  0  0  0  0
284283  1  0  0  0  0
285283  1  0  0  0  0
286283  1  0  0  0  0
287276  2  0  0  0  0
288276  1  0  0  0  0
289287  1  0  0  0  0
290287  1  0  0  0  0
291288  2  0  0  0  0
292288  1  0  0  0  0
293291  1  0  0  0  0
293290  2  0  0  0  0
294291  1  0  0  0  0
295290  1  0  0  0  0
296293  1  0  0  0  0
297281  2  0  0  0  0
298281  1  0  0  0  0
299297  1  0  0  0  0
300297  1  0  0  0  0
301298  2  0  0  0  0
302298  1  0  0  0  0
303301  1  0  0  0  0
303300  2  0  0  0  0
304301  1  0  0  0  0
305300  1  0  0  0  0
306303  1  0  0  0  0
307286  1  0  0  0  0
308307  1  0  0  0  0
309307  1  0  0  0  0
310307  1  0  0  0  0
311310  1  0  0  0  0
312310  1  0  0  0  0
313310  1  0  0  0  0
314313  1  0  0  0  0
315313  1  0  0  0  0
316313  1  0  0  0  0
317286  1  0  0  0  0
318286  1  0  0  0  0
319318  2  0  0  0  0
320318  1  0  0  0  0
321319  1  0  0  0  0
322319  1  0  0  0  0
323320  2  0  0  0  0
324320  1  0  0  0  0
325323  1  0  0  0  0
325322  2  0  0  0  0
326323  1  0  0  0  0
327322  1  0  0  0  0
328325  1  0  0  0  0
329311  2  0  0  0  0
330311  1  0  0  0  0
331329  1  0  0  0  0
332329  1  0  0  0  0
333330  2  0  0  0  0
334330  1  0  0  0  0
335333  1  0  0  0  0
335332  2  0  0  0  0
336333  1  0  0  0  0
337332  1  0  0  0  0
338335  1  0  0  0  0
339316  1  0  0  0  0
340316  1  0  0  0  0
341316  1  0  0  0  0
342341  1  0  0  0  0
343341  1  0  0  0  0
344341  1  0  0  0  0
345344  1  0  0  0  0
346344  1  0  0  0  0
347344  1  0  0  0  0
348347  1  0  0  0  0
349347  1  0  0  0  0
350347  1  0  0  0  0
351340  2  0  0  0  0
352340  1  0  0  0  0
353351  1  0  0  0  0
354351  1  0  0  0  0
355352  2  0  0  0  0
356352  1  0  0  0  0
357355  1  0  0  0  0
357354  2  0  0  0  0
358355  1  0  0  0  0
359354  1  0  0  0  0
360357  1  0  0  0  0
361345  2  0  0  0  0
362345  1  0  0  0  0
363361  1  0  0  0  0
364361  1  0  0  0  0
365362  2  0  0  0  0
366362  1  0  0  0  0
367365  1  0  0  0  0
367364  2  0  0  0  0
368365  1  0  0  0  0
369364  1  0  0  0  0
370367  1  0  0  0  0
371350  1  0  0  0  0
372350  1  0  0  0  0
373350  1  0  0  0  0
374373  1  0  0  0  0
375373  1  0  0  0  0
376373  1  0  0  0  0
377376  1  0  0  0  0
378376  1  0  0  0  0
379376  1  0  0  0  0
380379  1  0  0  0  0
381379  1  0  0  0  0
382379  1  0  0  0  0
383372  2  0  0  0  0
384372  1  0  0  0  0
385383  1  0  0  0  0
386383  1  0  0  0  0
387384  2  0  0  0  0
388384  1  0  0  0  0
389387  1  0  0  0  0
389386  2  0  0  0  0
390387  1  0  0  0  0
391386  1  0  0  0  0
392389  1  0  0  0  0
393377  2  0  0  0  0
394393  1  0  0  0  0
395377  1  0  0  0  0
396393  1  0  0  0  0
397395  2  0  0  0  0
398395  1  0  0  0  0
399397  1  0  0  0  0
399394  2  0  0  0  0
400397  1  0  0  0  0
401394  1  0  0  0  0
402399  1  0  0  0  0
M  END
