
 OpenBabel06161210273D

110109  0  0  0  0  0  0  0  0999 V2000
    5.0857   -2.3864    1.3864 C   0  0  0  0  0  0  0  0  0  0  0  0
    4.0524   -1.2704    1.1335 C   0  0  0  0  0  0  0  0  0  0  0  0
    2.6988   -1.7911    0.6116 C   0  0  0  0  0  0  0  0  0  0  0  0
    1.6718   -0.6539    0.4452 C   0  0  0  0  0  0  0  0  0  0  0  0
    0.3432   -1.1138   -0.1861 C   0  0  0  0  0  0  0  0  0  0  0  0
   -0.6352    0.0592   -0.3940 C   0  0  0  0  0  0  0  0  0  0  0  0
   -2.0036   -0.3753   -0.9526 C   0  0  0  0  0  0  0  0  0  0  0  0
   -3.0259    0.7779   -0.9155 C   0  0  0  0  0  0  0  0  0  0  0  0
   -4.3396    0.4419   -1.6346 C   0  0  0  0  0  0  0  0  0  0  0  0
   -5.3211    1.6106   -1.6013 C   0  0  0  0  0  0  0  0  0  0  0  0
    5.3113   -2.9177    0.4557 H   0  0  0  0  0  0  0  0  0  0  0  0
    6.3989   -1.8290    1.9685 C   0  0  0  0  0  0  0  0  0  0  0  0
    4.6454   -3.1237    2.0662 H   0  0  0  0  0  0  0  0  0  0  0  0
    3.8580   -0.7935    2.1016 H   0  0  0  0  0  0  0  0  0  0  0  0
    4.5853   -0.2032    0.3070 O   0  0  0  0  0  0  0  0  0  0  0  0
    2.8275   -2.2918   -0.3539 H   0  0  0  0  0  0  0  0  0  0  0  0
    2.3235   -2.5492    1.3072 H   0  0  0  0  0  0  0  0  0  0  0  0
    1.4766    0.0910    1.6746 O   0  0  0  0  0  0  0  0  0  0  0  0
    2.1117    0.0746   -0.2456 H   0  0  0  0  0  0  0  0  0  0  0  0
   -0.0492    1.1399   -1.1649 O   0  0  0  0  0  0  0  0  0  0  0  0
   -3.2359    1.2751    0.4300 O   0  0  0  0  0  0  0  0  0  0  0  0
   -2.5868    1.6263   -1.4555 H   0  0  0  0  0  0  0  0  0  0  0  0
   -4.1331    0.1727   -2.6783 H   0  0  0  0  0  0  0  0  0  0  0  0
   -4.8235   -0.4383   -1.1973 H   0  0  0  0  0  0  0  0  0  0  0  0
   -6.4927    1.2427   -2.3416 O   0  0  0  0  0  0  0  0  0  0  0  0
   -5.6061    1.8425   -0.5689 H   0  0  0  0  0  0  0  0  0  0  0  0
   -4.8666    2.4954   -2.0625 H   0  0  0  0  0  0  0  0  0  0  0  0
   -7.4644    2.1966   -2.3475 C   0  0  0  0  0  0  0  0  0  0  0  0
   -7.3908    3.2876   -1.7995 O   0  0  0  0  0  0  0  0  0  0  0  0
   -8.6571    1.7122   -3.1126 C   0  0  0  0  0  0  0  0  0  0  0  0
   -9.1248    0.8811   -2.5795 H   0  0  0  0  0  0  0  0  0  0  0  0
   -8.3556    1.4051   -4.1172 H   0  0  0  0  0  0  0  0  0  0  0  0
   -9.3820    2.5260   -3.2055 H   0  0  0  0  0  0  0  0  0  0  0  0
   -3.8129    0.4723    1.3654 C   0  0  0  0  0  0  0  0  0  0  0  0
    0.3270    0.9274   -2.4545 C   0  0  0  0  0  0  0  0  0  0  0  0
    0.9204   -0.5179    2.7554 C   0  0  0  0  0  0  0  0  0  0  0  0
    4.9452   -0.4584   -0.9792 C   0  0  0  0  0  0  0  0  0  0  0  0
   -3.9000    1.1966    2.6735 C   0  0  0  0  0  0  0  0  0  0  0  0
    0.5393   -1.6761    2.8097 O   0  0  0  0  0  0  0  0  0  0  0  0
    0.8268    0.4520    3.8931 C   0  0  0  0  0  0  0  0  0  0  0  0
    0.2018   -0.1157   -3.0764 O   0  0  0  0  0  0  0  0  0  0  0  0
    0.9315    2.1749   -3.0218 C   0  0  0  0  0  0  0  0  0  0  0  0
    4.8634   -1.5354   -1.5472 O   0  0  0  0  0  0  0  0  0  0  0  0
    5.4643    0.7927   -1.6187 C   0  0  0  0  0  0  0  0  0  0  0  0
    1.7891    2.4799   -2.4167 H   0  0  0  0  0  0  0  0  0  0  0  0
    0.1808    2.9679   -3.0570 H   0  0  0  0  0  0  0  0  0  0  0  0
    1.2810    1.9768   -4.0394 H   0  0  0  0  0  0  0  0  0  0  0  0
    6.3249    1.1661   -1.0579 H   0  0  0  0  0  0  0  0  0  0  0  0
    4.6721    1.5445   -1.6576 H   0  0  0  0  0  0  0  0  0  0  0  0
    5.7866    0.5703   -2.6400 H   0  0  0  0  0  0  0  0  0  0  0  0
    0.1597    1.2746    3.6240 H   0  0  0  0  0  0  0  0  0  0  0  0
    1.8222    0.8272    4.1440 H   0  0  0  0  0  0  0  0  0  0  0  0
    0.4180   -0.0576    4.7705 H   0  0  0  0  0  0  0  0  0  0  0  0
   -4.5380    2.0773    2.5676 H   0  0  0  0  0  0  0  0  0  0  0  0
   -2.8988    1.4819    3.0064 H   0  0  0  0  0  0  0  0  0  0  0  0
   -4.3395    0.5344    3.4250 H   0  0  0  0  0  0  0  0  0  0  0  0
   -2.3682   -1.2253   -0.3666 H   0  0  0  0  0  0  0  0  0  0  0  0
   -1.9055   -0.7257   -1.9850 H   0  0  0  0  0  0  0  0  0  0  0  0
   -4.2071   -0.6691    1.1856 O   0  0  0  0  0  0  0  0  0  0  0  0
   -0.1409   -1.8658    0.4461 H   0  0  0  0  0  0  0  0  0  0  0  0
    0.5605   -1.6074   -1.1393 H   0  0  0  0  0  0  0  0  0  0  0  0
   -0.8167    0.4969    0.5943 H   0  0  0  0  0  0  0  0  0  0  0  0
    6.1815   -1.0774    3.1902 O   0  0  0  0  0  0  0  0  0  0  0  0
    6.7715   -1.0842    1.2559 H   0  0  0  0  0  0  0  0  0  0  0  0
    7.5093   -2.8880    2.1170 C   0  0  0  0  0  0  0  0  0  0  0  0
    8.8224   -2.2702    2.6353 C   0  0  0  0  0  0  0  0  0  0  0  0
    5.7397   -1.7135    4.3074 C   0  0  0  0  0  0  0  0  0  0  0  0
    5.6130   -0.7335    5.4334 C   0  0  0  0  0  0  0  0  0  0  0  0
    5.4783   -2.9020    4.4008 O   0  0  0  0  0  0  0  0  0  0  0  0
    4.8352   -0.0020    5.2016 H   0  0  0  0  0  0  0  0  0  0  0  0
    6.5721   -0.2375    5.6034 H   0  0  0  0  0  0  0  0  0  0  0  0
    5.3350   -1.2663    6.3474 H   0  0  0  0  0  0  0  0  0  0  0  0
    7.6677   -3.3682    1.1454 H   0  0  0  0  0  0  0  0  0  0  0  0
    7.1966   -3.6796    2.8061 H   0  0  0  0  0  0  0  0  0  0  0  0
    8.5969   -1.8117    3.6052 H   0  0  0  0  0  0  0  0  0  0  0  0
    9.2710   -1.1636    1.8096 O   0  0  0  0  0  0  0  0  0  0  0  0
    9.9395   -3.3028    2.8813 C   0  0  0  0  0  0  0  0  0  0  0  0
   10.2533   -3.7624    1.9386 H   0  0  0  0  0  0  0  0  0  0  0  0
    9.5411   -4.1096    3.5048 H   0  0  0  0  0  0  0  0  0  0  0  0
   11.1674   -2.6530    3.5509 C   0  0  0  0  0  0  0  0  0  0  0  0
   10.8408   -2.0618    4.8335 O   0  0  0  0  0  0  0  0  0  0  0  0
   11.4564   -1.8037    2.9226 H   0  0  0  0  0  0  0  0  0  0  0  0
   12.3879   -3.5825    3.6249 C   0  0  0  0  0  0  0  0  0  0  0  0
   12.6407   -3.9410    2.6180 H   0  0  0  0  0  0  0  0  0  0  0  0
   12.1504   -4.4872    4.1966 H   0  0  0  0  0  0  0  0  0  0  0  0
   13.6263   -2.9243    4.2571 C   0  0  0  0  0  0  0  0  0  0  0  0
    9.6490   -1.3867    0.5226 C   0  0  0  0  0  0  0  0  0  0  0  0
    9.6562   -2.4665   -0.0468 O   0  0  0  0  0  0  0  0  0  0  0  0
   10.0602   -0.0966   -0.1180 C   0  0  0  0  0  0  0  0  0  0  0  0
   10.8839    0.3506    0.4441 H   0  0  0  0  0  0  0  0  0  0  0  0
    9.2064    0.5838   -0.1610 H   0  0  0  0  0  0  0  0  0  0  0  0
   10.4038   -0.2927   -1.1379 H   0  0  0  0  0  0  0  0  0  0  0  0
   10.4491   -2.8601    5.8636 C   0  0  0  0  0  0  0  0  0  0  0  0
   10.1473   -2.0244    7.0698 C   0  0  0  0  0  0  0  0  0  0  0  0
    9.3532   -1.3106    6.8363 H   0  0  0  0  0  0  0  0  0  0  0  0
   11.0513   -1.5048    7.3963 H   0  0  0  0  0  0  0  0  0  0  0  0
    9.8030   -2.6719    7.8814 H   0  0  0  0  0  0  0  0  0  0  0  0
   10.3473   -4.0764    5.8301 O   0  0  0  0  0  0  0  0  0  0  0  0
   13.3723   -2.5707    5.2641 H   0  0  0  0  0  0  0  0  0  0  0  0
   14.1655   -1.7679    3.4160 C   0  0  0  0  0  0  0  0  0  0  0  0
   14.6453   -3.9427    4.3435 O   0  0  0  0  0  0  0  0  0  0  0  0
   13.4623   -0.9320    3.3737 H   0  0  0  0  0  0  0  0  0  0  0  0
   14.3812   -2.0984    2.3938 H   0  0  0  0  0  0  0  0  0  0  0  0
   15.1081   -1.3903    3.8257 H   0  0  0  0  0  0  0  0  0  0  0  0
   15.5855   -3.7654    5.3139 C   0  0  0  0  0  0  0  0  0  0  0  0
   15.6277   -2.8319    6.1029 O   0  0  0  0  0  0  0  0  0  0  0  0
   16.5624   -4.8993    5.2959 C   0  0  0  0  0  0  0  0  0  0  0  0
   16.9164   -5.0726    4.2761 H   0  0  0  0  0  0  0  0  0  0  0  0
   16.0901   -5.7992    5.6966 H   0  0  0  0  0  0  0  0  0  0  0  0
   17.4270   -4.6406    5.9143 H   0  0  0  0  0  0  0  0  0  0  0  0
  1  2  1  0  0  0  0
  1 11  1  0  0  0  0
  1 12  1  0  0  0  0
  1 13  1  0  0  0  0
  2  3  1  0  0  0  0
  2 14  1  0  0  0  0
  2 15  1  0  0  0  0
  3  4  1  0  0  0  0
  3 16  1  0  0  0  0
  3 17  1  0  0  0  0
  4  5  1  0  0  0  0
  4 18  1  0  0  0  0
  4 19  1  0  0  0  0
  5  6  1  0  0  0  0
  6  7  1  0  0  0  0
  6 20  1  0  0  0  0
  7  8  1  0  0  0  0
  8  9  1  0  0  0  0
  8 21  1  0  0  0  0
  8 22  1  0  0  0  0
  9 10  1  0  0  0  0
  9 23  1  0  0  0  0
  9 24  1  0  0  0  0
 10 25  1  0  0  0  0
 10 26  1  0  0  0  0
 10 27  1  0  0  0  0
 28 25  1  0  0  0  0
 29 28  2  0  0  0  0
 30 28  1  0  0  0  0
 31 30  1  0  0  0  0
 32 30  1  0  0  0  0
 33 30  1  0  0  0  0
 34 21  1  0  0  0  0
 35 20  1  0  0  0  0
 36 18  1  0  0  0  0
 37 15  1  0  0  0  0
 38 34  1  0  0  0  0
 39 36  2  0  0  0  0
 40 36  1  0  0  0  0
 41 35  2  0  0  0  0
 42 35  1  0  0  0  0
 43 37  2  0  0  0  0
 44 37  1  0  0  0  0
 45 42  1  0  0  0  0
 46 42  1  0  0  0  0
 47 42  1  0  0  0  0
 48 44  1  0  0  0  0
 49 44  1  0  0  0  0
 50 44  1  0  0  0  0
 51 40  1  0  0  0  0
 52 40  1  0  0  0  0
 53 40  1  0  0  0  0
 54 38  1  0  0  0  0
 55 38  1  0  0  0  0
 56 38  1  0  0  0  0
 57  7  1  0  0  0  0
 58  7  1  0  0  0  0
 59 34  2  0  0  0  0
 60  5  1  0  0  0  0
 61  5  1  0  0  0  0
 62  6  1  0  0  0  0
 63 12  1  0  0  0  0
 64 12  1  0  0  0  0
 65 12  1  0  0  0  0
 66 65  1  0  0  0  0
 67 63  1  0  0  0  0
 68 67  1  0  0  0  0
 69 67  2  0  0  0  0
 70 68  1  0  0  0  0
 71 68  1  0  0  0  0
 72 68  1  0  0  0  0
 73 65  1  0  0  0  0
 74 65  1  0  0  0  0
 75 66  1  0  0  0  0
 76 66  1  0  0  0  0
 77 66  1  0  0  0  0
 78 77  1  0  0  0  0
 79 77  1  0  0  0  0
 80 77  1  0  0  0  0
 81 80  1  0  0  0  0
 82 80  1  0  0  0  0
 83 80  1  0  0  0  0
 84 83  1  0  0  0  0
 85 83  1  0  0  0  0
 86 83  1  0  0  0  0
 87 76  1  0  0  0  0
 88 87  2  0  0  0  0
 89 87  1  0  0  0  0
 90 89  1  0  0  0  0
 91 89  1  0  0  0  0
 92 89  1  0  0  0  0
 93 81  1  0  0  0  0
 94 93  1  0  0  0  0
 95 94  1  0  0  0  0
 96 94  1  0  0  0  0
 97 94  1  0  0  0  0
 98 93  2  0  0  0  0
 99 86  1  0  0  0  0
100 86  1  0  0  0  0
101 86  1  0  0  0  0
102100  1  0  0  0  0
103100  1  0  0  0  0
104100  1  0  0  0  0
105101  1  0  0  0  0
106105  2  0  0  0  0
107105  1  0  0  0  0
108107  1  0  0  0  0
109107  1  0  0  0  0
110107  1  0  0  0  0
M  END
