
 OpenBabel06251217083D

101100  0  0  0  0  0  0  0  0999 V2000
    0.1592    0.6213    0.2019 C   0  0  0  0  0  0  0  0  0  0  0  0
   -1.1771    0.8684   -0.5129 C   0  0  0  0  0  0  0  0  0  0  0  0
   -1.7010    1.6631    0.0331 H   0  0  0  0  0  0  0  0  0  0  0  0
   -0.9925    1.2565   -1.5213 H   0  0  0  0  0  0  0  0  0  0  0  0
   -2.1126   -0.3255   -0.5973 C   0  0  0  0  0  0  0  0  0  0  0  0
   -2.1949   -0.8411    0.3640 H   0  0  0  0  0  0  0  0  0  0  0  0
   -1.7845   -1.0377   -1.3576 H   0  0  0  0  0  0  0  0  0  0  0  0
   -3.1148    0.0053   -0.8900 H   0  0  0  0  0  0  0  0  0  0  0  0
   -0.0256    0.2626    1.2222 H   0  0  0  0  0  0  0  0  0  0  0  0
    0.6303    1.6071    0.3091 H   0  0  0  0  0  0  0  0  0  0  0  0
    1.1463   -0.3208   -0.5277 C   0  0  0  0  0  0  0  0  0  0  0  0
    1.1329   -0.0572   -1.5923 H   0  0  0  0  0  0  0  0  0  0  0  0
    0.7230   -1.7901   -0.3597 C   0  0  0  0  0  0  0  0  0  0  0  0
    2.5909   -0.1157    0.0067 C   0  0  0  0  0  0  0  0  0  0  0  0
    2.7536   -0.7786    0.8666 H   0  0  0  0  0  0  0  0  0  0  0  0
    2.7007    0.9064    0.3925 H   0  0  0  0  0  0  0  0  0  0  0  0
    3.7285   -0.3190   -1.0371 C   0  0  0  0  0  0  0  0  0  0  0  0
    0.1995   -1.9570    0.5874 H   0  0  0  0  0  0  0  0  0  0  0  0
    1.5701   -2.4796   -0.3715 H   0  0  0  0  0  0  0  0  0  0  0  0
    0.0636   -2.0984   -1.1752 H   0  0  0  0  0  0  0  0  0  0  0  0
    3.6595    0.5194   -1.7453 H   0  0  0  0  0  0  0  0  0  0  0  0
    3.5599   -1.5823   -1.8855 C   0  0  0  0  0  0  0  0  0  0  0  0
    5.1129   -0.1740   -0.3229 C   0  0  0  0  0  0  0  0  0  0  0  0
    5.0466   -0.5441    0.7086 H   0  0  0  0  0  0  0  0  0  0  0  0
    5.3067    0.9033   -0.2314 H   0  0  0  0  0  0  0  0  0  0  0  0
    6.3178   -0.8526   -1.0202 C   0  0  0  0  0  0  0  0  0  0  0  0
    2.6082   -1.5787   -2.4253 H   0  0  0  0  0  0  0  0  0  0  0  0
    3.5994   -2.4888   -1.2768 H   0  0  0  0  0  0  0  0  0  0  0  0
    4.3268   -1.6518   -2.6623 H   0  0  0  0  0  0  0  0  0  0  0  0
    6.2055   -0.6739   -2.0948 H   0  0  0  0  0  0  0  0  0  0  0  0
    6.3102   -2.3666   -0.7171 C   0  0  0  0  0  0  0  0  0  0  0  0
    7.6775   -0.2406   -0.5910 C   0  0  0  0  0  0  0  0  0  0  0  0
    7.9380   -0.6330    0.4003 H   0  0  0  0  0  0  0  0  0  0  0  0
    7.5639    0.8431   -0.4548 H   0  0  0  0  0  0  0  0  0  0  0  0
    8.8691   -0.4466   -1.5848 C   0  0  0  0  0  0  0  0  0  0  0  0
    8.8178    0.4014   -2.2843 H   0  0  0  0  0  0  0  0  0  0  0  0
    8.7532   -1.6819   -2.4881 C   0  0  0  0  0  0  0  0  0  0  0  0
   10.2365   -0.2868   -0.8340 C   0  0  0  0  0  0  0  0  0  0  0  0
   10.1232   -0.5475    0.2261 H   0  0  0  0  0  0  0  0  0  0  0  0
   10.4781    0.7845   -0.8421 H   0  0  0  0  0  0  0  0  0  0  0  0
   11.4332   -1.0858   -1.4103 C   0  0  0  0  0  0  0  0  0  0  0  0
    5.5062   -2.6534   -0.0315 H   0  0  0  0  0  0  0  0  0  0  0  0
    7.2411   -2.7074   -0.2527 H   0  0  0  0  0  0  0  0  0  0  0  0
    6.1756   -2.9398   -1.6403 H   0  0  0  0  0  0  0  0  0  0  0  0
    7.8328   -1.6632   -3.0787 H   0  0  0  0  0  0  0  0  0  0  0  0
    8.7714   -2.6143   -1.9208 H   0  0  0  0  0  0  0  0  0  0  0  0
    9.5556   -1.7180   -3.2301 H   0  0  0  0  0  0  0  0  0  0  0  0
   11.3879   -0.9899   -2.4996 H   0  0  0  0  0  0  0  0  0  0  0  0
   11.3173   -2.5669   -0.9891 C   0  0  0  0  0  0  0  0  0  0  0  0
   12.8096   -0.5190   -0.9740 C   0  0  0  0  0  0  0  0  0  0  0  0
   13.0239   -0.8583    0.0475 H   0  0  0  0  0  0  0  0  0  0  0  0
   12.7520    0.5758   -0.9137 H   0  0  0  0  0  0  0  0  0  0  0  0
   14.0111   -0.8580   -1.9188 C   0  0  0  0  0  0  0  0  0  0  0  0
   13.9887   -0.1013   -2.7170 H   0  0  0  0  0  0  0  0  0  0  0  0
   13.8904   -2.1978   -2.6552 C   0  0  0  0  0  0  0  0  0  0  0  0
   15.3631   -0.6413   -1.1627 C   0  0  0  0  0  0  0  0  0  0  0  0
   15.2495   -0.9021   -0.1025 H   0  0  0  0  0  0  0  0  0  0  0  0
   15.5625    0.4386   -1.1761 H   0  0  0  0  0  0  0  0  0  0  0  0
   16.5934   -1.3998   -1.7285 C   0  0  0  0  0  0  0  0  0  0  0  0
   10.4406   -2.7574   -0.3613 H   0  0  0  0  0  0  0  0  0  0  0  0
   12.1845   -2.9103   -0.4159 H   0  0  0  0  0  0  0  0  0  0  0  0
   11.2324   -3.2091   -1.8720 H   0  0  0  0  0  0  0  0  0  0  0  0
   12.9840   -2.2409   -3.2659 H   0  0  0  0  0  0  0  0  0  0  0  0
   13.8788   -3.0458   -1.9671 H   0  0  0  0  0  0  0  0  0  0  0  0
   14.7078   -2.3435   -3.3668 H   0  0  0  0  0  0  0  0  0  0  0  0
   16.5394   -1.3422   -2.8209 H   0  0  0  0  0  0  0  0  0  0  0  0
   16.5584   -2.8703   -1.2581 C   0  0  0  0  0  0  0  0  0  0  0  0
   17.9328   -0.7471   -1.3053 C   0  0  0  0  0  0  0  0  0  0  0  0
   18.1192   -0.9922   -0.2516 H   0  0  0  0  0  0  0  0  0  0  0  0
   17.8273    0.3459   -1.3324 H   0  0  0  0  0  0  0  0  0  0  0  0
   19.1902   -1.0958   -2.1724 C   0  0  0  0  0  0  0  0  0  0  0  0
   19.2224   -0.3456   -2.9759 H   0  0  0  0  0  0  0  0  0  0  0  0
   19.1367   -2.4421   -2.8922 C   0  0  0  0  0  0  0  0  0  0  0  0
   20.4727   -0.8782   -1.3162 C   0  0  0  0  0  0  0  0  0  0  0  0
   20.3176   -1.2859   -0.3093 H   0  0  0  0  0  0  0  0  0  0  0  0
   20.5595    0.2084   -1.1805 H   0  0  0  0  0  0  0  0  0  0  0  0
   21.8156   -1.4346   -1.8708 C   0  0  0  0  0  0  0  0  0  0  0  0
   15.6968   -3.0874   -0.6187 H   0  0  0  0  0  0  0  0  0  0  0  0
   17.4442   -3.1464   -0.6772 H   0  0  0  0  0  0  0  0  0  0  0  0
   16.5053   -3.5452   -2.1189 H   0  0  0  0  0  0  0  0  0  0  0  0
   18.2476   -2.5302   -3.5229 H   0  0  0  0  0  0  0  0  0  0  0  0
   19.1488   -3.2791   -2.1901 H   0  0  0  0  0  0  0  0  0  0  0  0
   19.9807   -2.5538   -3.5799 H   0  0  0  0  0  0  0  0  0  0  0  0
   21.8212   -1.3221   -2.9608 H   0  0  0  0  0  0  0  0  0  0  0  0
   21.9710   -2.9212   -1.4942 C   0  0  0  0  0  0  0  0  0  0  0  0
   23.0163   -0.6354   -1.2961 C   0  0  0  0  0  0  0  0  0  0  0  0
   23.3571   -1.0937   -0.3589 H   0  0  0  0  0  0  0  0  0  0  0  0
   22.6874    0.3778   -1.0314 H   0  0  0  0  0  0  0  0  0  0  0  0
   24.2110   -0.4699   -2.2676 C   0  0  0  0  0  0  0  0  0  0  0  0
   23.8622    0.0952   -3.1411 H   0  0  0  0  0  0  0  0  0  0  0  0
   24.8060   -1.7836   -2.7725 C   0  0  0  0  0  0  0  0  0  0  0  0
   25.3122    0.3534   -1.5911 C   0  0  0  0  0  0  0  0  0  0  0  0
   25.7052   -0.1614   -0.7078 H   0  0  0  0  0  0  0  0  0  0  0  0
   24.9316    1.3301   -1.2747 H   0  0  0  0  0  0  0  0  0  0  0  0
   26.1464    0.5286   -2.2791 H   0  0  0  0  0  0  0  0  0  0  0  0
   21.3735   -3.5703   -2.1368 H   0  0  0  0  0  0  0  0  0  0  0  0
   21.6664   -3.1032   -0.4579 H   0  0  0  0  0  0  0  0  0  0  0  0
   23.0006   -3.2718   -1.5850 H   0  0  0  0  0  0  0  0  0  0  0  0
   24.0854   -2.3404   -3.3791 H   0  0  0  0  0  0  0  0  0  0  0  0
   25.1336   -2.4182   -1.9428 H   0  0  0  0  0  0  0  0  0  0  0  0
   25.6773   -1.5955   -3.4100 H   0  0  0  0  0  0  0  0  0  0  0  0
  1  2  1  0  0  0  0
  2  3  1  0  0  0  0
  2  4  1  0  0  0  0
  2  5  1  0  0  0  0
  6  5  1  0  0  0  0
  7  5  1  0  0  0  0
  8  5  1  0  0  0  0
  9  1  1  0  0  0  0
 10  1  1  0  0  0  0
 11  1  1  0  0  0  0
 12 11  1  0  0  0  0
 13 11  1  0  0  0  0
 14 11  1  0  0  0  0
 15 14  1  0  0  0  0
 16 14  1  0  0  0  0
 17 14  1  0  0  0  0
 18 13  1  0  0  0  0
 19 13  1  0  0  0  0
 20 13  1  0  0  0  0
 21 17  1  0  0  0  0
 22 17  1  0  0  0  0
 23 17  1  0  0  0  0
 24 23  1  0  0  0  0
 25 23  1  0  0  0  0
 26 23  1  0  0  0  0
 27 22  1  0  0  0  0
 28 22  1  0  0  0  0
 29 22  1  0  0  0  0
 30 26  1  0  0  0  0
 31 26  1  0  0  0  0
 32 26  1  0  0  0  0
 33 32  1  0  0  0  0
 34 32  1  0  0  0  0
 35 32  1  0  0  0  0
 36 35  1  0  0  0  0
 37 35  1  0  0  0  0
 38 35  1  0  0  0  0
 39 38  1  0  0  0  0
 40 38  1  0  0  0  0
 41 38  1  0  0  0  0
 42 31  1  0  0  0  0
 43 31  1  0  0  0  0
 44 31  1  0  0  0  0
 45 37  1  0  0  0  0
 46 37  1  0  0  0  0
 47 37  1  0  0  0  0
 48 41  1  0  0  0  0
 49 41  1  0  0  0  0
 50 41  1  0  0  0  0
 51 50  1  0  0  0  0
 52 50  1  0  0  0  0
 53 50  1  0  0  0  0
 54 53  1  0  0  0  0
 55 53  1  0  0  0  0
 56 53  1  0  0  0  0
 57 56  1  0  0  0  0
 58 56  1  0  0  0  0
 59 56  1  0  0  0  0
 60 49  1  0  0  0  0
 61 49  1  0  0  0  0
 62 49  1  0  0  0  0
 63 55  1  0  0  0  0
 64 55  1  0  0  0  0
 65 55  1  0  0  0  0
 66 59  1  0  0  0  0
 67 59  1  0  0  0  0
 68 59  1  0  0  0  0
 69 68  1  0  0  0  0
 70 68  1  0  0  0  0
 71 68  1  0  0  0  0
 72 71  1  0  0  0  0
 73 71  1  0  0  0  0
 74 71  1  0  0  0  0
 75 74  1  0  0  0  0
 76 74  1  0  0  0  0
 77 74  1  0  0  0  0
 78 67  1  0  0  0  0
 79 67  1  0  0  0  0
 80 67  1  0  0  0  0
 81 73  1  0  0  0  0
 82 73  1  0  0  0  0
 83 73  1  0  0  0  0
 84 77  1  0  0  0  0
 85 77  1  0  0  0  0
 86 77  1  0  0  0  0
 87 86  1  0  0  0  0
 88 86  1  0  0  0  0
 89 86  1  0  0  0  0
 90 89  1  0  0  0  0
 91 89  1  0  0  0  0
 92 89  1  0  0  0  0
 93 92  1  0  0  0  0
 94 92  1  0  0  0  0
 95 92  1  0  0  0  0
 96 85  1  0  0  0  0
 97 85  1  0  0  0  0
 98 85  1  0  0  0  0
 99 91  1  0  0  0  0
100 91  1  0  0  0  0
101 91  1  0  0  0  0
M  END
