
 OpenBabel06251217083D

 47 46  0  0  0  0  0  0  0  0999 V2000
    0.7260    0.4789   -0.2979 C   0  0  0  0  0  0  0  0  0  0  0  0
   -0.5920    0.7469   -1.0353 C   0  0  0  0  0  0  0  0  0  0  0  0
   -0.8025    1.8221   -0.9733 H   0  0  0  0  0  0  0  0  0  0  0  0
   -0.4975    0.5096   -2.1011 H   0  0  0  0  0  0  0  0  0  0  0  0
   -1.7905    0.0214   -0.4402 C   0  0  0  0  0  0  0  0  0  0  0  0
   -1.9061    0.2604    0.6221 H   0  0  0  0  0  0  0  0  0  0  0  0
   -1.7090   -1.0629   -0.5380 H   0  0  0  0  0  0  0  0  0  0  0  0
   -2.7064    0.3300   -0.9544 H   0  0  0  0  0  0  0  0  0  0  0  0
    0.5382    0.3027    0.7693 H   0  0  0  0  0  0  0  0  0  0  0  0
    1.3167    1.4029   -0.3559 H   0  0  0  0  0  0  0  0  0  0  0  0
    1.5921   -0.6619   -0.8854 C   0  0  0  0  0  0  0  0  0  0  0  0
    1.7856   -0.4226   -1.9393 H   0  0  0  0  0  0  0  0  0  0  0  0
    0.8616   -2.0064   -0.8128 C   0  0  0  0  0  0  0  0  0  0  0  0
    2.9453   -0.7299   -0.1323 C   0  0  0  0  0  0  0  0  0  0  0  0
    2.8815   -1.4705    0.6766 H   0  0  0  0  0  0  0  0  0  0  0  0
    3.1303    0.2335    0.3610 H   0  0  0  0  0  0  0  0  0  0  0  0
    4.1872   -1.0299   -1.0157 C   0  0  0  0  0  0  0  0  0  0  0  0
    0.4497   -2.1786    0.1879 H   0  0  0  0  0  0  0  0  0  0  0  0
    1.5176   -2.8494   -1.0411 H   0  0  0  0  0  0  0  0  0  0  0  0
    0.0418   -2.0416   -1.5360 H   0  0  0  0  0  0  0  0  0  0  0  0
    4.2749   -0.2181   -1.7514 H   0  0  0  0  0  0  0  0  0  0  0  0
    4.0561   -2.3361   -1.7958 C   0  0  0  0  0  0  0  0  0  0  0  0
    5.4529   -0.9763   -0.1159 C   0  0  0  0  0  0  0  0  0  0  0  0
    5.3241   -1.6573    0.7364 H   0  0  0  0  0  0  0  0  0  0  0  0
    5.4827    0.0322    0.3154 H   0  0  0  0  0  0  0  0  0  0  0  0
    6.7989   -1.2779   -0.8298 C   0  0  0  0  0  0  0  0  0  0  0  0
    3.1898   -2.3155   -2.4631 H   0  0  0  0  0  0  0  0  0  0  0  0
    3.9544   -3.1924   -1.1212 H   0  0  0  0  0  0  0  0  0  0  0  0
    4.9207   -2.5057   -2.4435 H   0  0  0  0  0  0  0  0  0  0  0  0
    6.6807   -1.0853   -1.9031 H   0  0  0  0  0  0  0  0  0  0  0  0
    7.1699   -2.7546   -0.6094 C   0  0  0  0  0  0  0  0  0  0  0  0
    7.9303   -0.3623   -0.2915 C   0  0  0  0  0  0  0  0  0  0  0  0
    8.4267   -0.8400    0.5637 H   0  0  0  0  0  0  0  0  0  0  0  0
    7.4932    0.5658    0.0978 H   0  0  0  0  0  0  0  0  0  0  0  0
    8.9853    0.0633   -1.3390 C   0  0  0  0  0  0  0  0  0  0  0  0
    8.4726    0.6204   -2.1344 H   0  0  0  0  0  0  0  0  0  0  0  0
    9.7284   -1.1014   -1.9882 C   0  0  0  0  0  0  0  0  0  0  0  0
    9.9978    1.0129   -0.6897 C   0  0  0  0  0  0  0  0  0  0  0  0
   10.5509    0.5132    0.1134 H   0  0  0  0  0  0  0  0  0  0  0  0
    9.4960    1.8878   -0.2634 H   0  0  0  0  0  0  0  0  0  0  0  0
   10.7233    1.3735   -1.4267 H   0  0  0  0  0  0  0  0  0  0  0  0
    6.3830   -3.4295   -0.9537 H   0  0  0  0  0  0  0  0  0  0  0  0
    7.3335   -2.9625    0.4546 H   0  0  0  0  0  0  0  0  0  0  0  0
    8.0812   -3.0343   -1.1405 H   0  0  0  0  0  0  0  0  0  0  0  0
    9.0601   -1.6922   -2.6212 H   0  0  0  0  0  0  0  0  0  0  0  0
   10.1739   -1.7597   -1.2347 H   0  0  0  0  0  0  0  0  0  0  0  0
   10.5352   -0.7382   -2.6343 H   0  0  0  0  0  0  0  0  0  0  0  0
  1  2  1  0  0  0  0
  2  3  1  0  0  0  0
  2  4  1  0  0  0  0
  2  5  1  0  0  0  0
  6  5  1  0  0  0  0
  7  5  1  0  0  0  0
  8  5  1  0  0  0  0
  9  1  1  0  0  0  0
 10  1  1  0  0  0  0
 11  1  1  0  0  0  0
 12 11  1  0  0  0  0
 13 11  1  0  0  0  0
 14 11  1  0  0  0  0
 15 14  1  0  0  0  0
 16 14  1  0  0  0  0
 17 14  1  0  0  0  0
 18 13  1  0  0  0  0
 19 13  1  0  0  0  0
 20 13  1  0  0  0  0
 21 17  1  0  0  0  0
 22 17  1  0  0  0  0
 23 17  1  0  0  0  0
 24 23  1  0  0  0  0
 25 23  1  0  0  0  0
 26 23  1  0  0  0  0
 27 22  1  0  0  0  0
 28 22  1  0  0  0  0
 29 22  1  0  0  0  0
 30 26  1  0  0  0  0
 31 26  1  0  0  0  0
 32 26  1  0  0  0  0
 33 32  1  0  0  0  0
 34 32  1  0  0  0  0
 35 32  1  0  0  0  0
 36 35  1  0  0  0  0
 37 35  1  0  0  0  0
 38 35  1  0  0  0  0
 39 38  1  0  0  0  0
 40 38  1  0  0  0  0
 41 38  1  0  0  0  0
 42 31  1  0  0  0  0
 43 31  1  0  0  0  0
 44 31  1  0  0  0  0
 45 37  1  0  0  0  0
 46 37  1  0  0  0  0
 47 37  1  0  0  0  0
M  END
