
 OpenBabel06161212143D

107106  0  0  0  0  0  0  0  0999 V2000
   -1.1972    0.9552    0.8186 C   0  0  0  0  0  0  0  0  0  0  0  0
   -0.3782   -0.2168    1.3527 C   0  0  0  0  0  0  0  0  0  0  0  0
   -1.0570   -1.5444    1.0295 C   0  0  0  0  0  0  0  0  0  0  0  0
    1.1286   -0.1583    0.9946 C   0  0  0  0  0  0  0  0  0  0  0  0
   -2.1881    0.9721    1.2875 H   0  0  0  0  0  0  0  0  0  0  0  0
   -0.7147    1.9115    1.0423 H   0  0  0  0  0  0  0  0  0  0  0  0
   -0.4341   -0.1476    2.4493 H   0  0  0  0  0  0  0  0  0  0  0  0
   -2.1576   -1.6562    0.5064 O   0  0  0  0  0  0  0  0  0  0  0  0
   -0.2997   -2.5925    1.4598 O   0  0  0  0  0  0  0  0  0  0  0  0
    1.5510    0.6870    1.5565 H   0  0  0  0  0  0  0  0  0  0  0  0
    1.6141   -0.0465   -0.4980 C   0  0  0  0  0  0  0  0  0  0  0  0
    1.6023   -1.0461    1.4349 H   0  0  0  0  0  0  0  0  0  0  0  0
   -0.8837   -3.8716    1.2068 C   0  0  0  0  0  0  0  0  0  0  0  0
   -1.0234   -4.0230    0.1317 H   0  0  0  0  0  0  0  0  0  0  0  0
   -1.8340   -3.9718    1.7405 H   0  0  0  0  0  0  0  0  0  0  0  0
   -0.1961   -4.6369    1.5770 H   0  0  0  0  0  0  0  0  0  0  0  0
    1.2492    1.3466   -1.0389 C   0  0  0  0  0  0  0  0  0  0  0  0
    0.9410   -1.1218   -1.3608 C   0  0  0  0  0  0  0  0  0  0  0  0
    3.1859   -0.2165   -0.4710 C   0  0  0  0  0  0  0  0  0  0  0  0
    3.4093   -1.0727    0.1813 H   0  0  0  0  0  0  0  0  0  0  0  0
    3.5946    0.6495    0.0687 H   0  0  0  0  0  0  0  0  0  0  0  0
    4.0479   -0.3972   -1.7826 C   0  0  0  0  0  0  0  0  0  0  0  0
    1.2308   -1.0451   -2.4115 H   0  0  0  0  0  0  0  0  0  0  0  0
   -0.1477   -1.0152   -1.3672 H   0  0  0  0  0  0  0  0  0  0  0  0
    1.1839   -2.1287   -1.0068 H   0  0  0  0  0  0  0  0  0  0  0  0
    1.8553    2.3344   -0.3211 O   0  0  0  0  0  0  0  0  0  0  0  0
    0.5030    1.5504   -1.9874 O   0  0  0  0  0  0  0  0  0  0  0  0
    1.5455    3.6541   -0.7733 C   0  0  0  0  0  0  0  0  0  0  0  0
    1.8977    3.7989   -1.7994 H   0  0  0  0  0  0  0  0  0  0  0  0
    2.0651    4.3647   -0.1249 H   0  0  0  0  0  0  0  0  0  0  0  0
    0.4696    3.8425   -0.7009 H   0  0  0  0  0  0  0  0  0  0  0  0
   -1.3647    0.8809   -0.2595 H   0  0  0  0  0  0  0  0  0  0  0  0
    3.6959    0.6788   -2.8169 C   0  0  0  0  0  0  0  0  0  0  0  0
    3.7786   -1.7951   -2.3692 C   0  0  0  0  0  0  0  0  0  0  0  0
    5.5701   -0.3035   -1.3474 C   0  0  0  0  0  0  0  0  0  0  0  0
    5.7799   -1.1749   -0.7112 H   0  0  0  0  0  0  0  0  0  0  0  0
    5.6635    0.5567   -0.6698 H   0  0  0  0  0  0  0  0  0  0  0  0
    6.7475   -0.2006   -2.4006 C   0  0  0  0  0  0  0  0  0  0  0  0
    3.3631   -2.0077   -3.5006 O   0  0  0  0  0  0  0  0  0  0  0  0
    4.0650   -2.7756   -1.4667 O   0  0  0  0  0  0  0  0  0  0  0  0
    3.8468   -4.1004   -1.9550 C   0  0  0  0  0  0  0  0  0  0  0  0
    4.0987   -4.8016   -1.1549 H   0  0  0  0  0  0  0  0  0  0  0  0
    4.4967   -4.3037   -2.8119 H   0  0  0  0  0  0  0  0  0  0  0  0
    2.7948   -4.2423   -2.2216 H   0  0  0  0  0  0  0  0  0  0  0  0
    4.2655    0.5632   -3.7415 H   0  0  0  0  0  0  0  0  0  0  0  0
    3.8754    1.6846   -2.4239 H   0  0  0  0  0  0  0  0  0  0  0  0
    2.6527    0.6154   -3.1352 H   0  0  0  0  0  0  0  0  0  0  0  0
    6.7219    1.1991   -3.0433 C   0  0  0  0  0  0  0  0  0  0  0  0
    6.6066   -1.2861   -3.4748 C   0  0  0  0  0  0  0  0  0  0  0  0
    8.1090   -0.3585   -1.6057 C   0  0  0  0  0  0  0  0  0  0  0  0
    7.9874   -1.2031   -0.9121 H   0  0  0  0  0  0  0  0  0  0  0  0
    8.2059    0.5195   -0.9523 H   0  0  0  0  0  0  0  0  0  0  0  0
    9.5000   -0.5573   -2.3445 C   0  0  0  0  0  0  0  0  0  0  0  0
    7.4085   -1.2505   -4.2133 H   0  0  0  0  0  0  0  0  0  0  0  0
    5.6971   -1.1611   -4.0660 H   0  0  0  0  0  0  0  0  0  0  0  0
    9.6597    0.4314   -3.5047 C   0  0  0  0  0  0  0  0  0  0  0  0
    9.5686   -2.0355   -2.7731 C   0  0  0  0  0  0  0  0  0  0  0  0
   10.6329   -0.3471   -1.2581 C   0  0  0  0  0  0  0  0  0  0  0  0
    9.6028    1.4669   -3.1549 H   0  0  0  0  0  0  0  0  0  0  0  0
    8.9048    0.2919   -4.2800 H   0  0  0  0  0  0  0  0  0  0  0  0
   10.6049    0.3022   -4.0340 H   0  0  0  0  0  0  0  0  0  0  0  0
   10.5669   -1.1891   -0.5538 H   0  0  0  0  0  0  0  0  0  0  0  0
   10.3560    0.5343   -0.6617 H   0  0  0  0  0  0  0  0  0  0  0  0
   12.1586   -0.1719   -1.6482 C   0  0  0  0  0  0  0  0  0  0  0  0
    6.5988   -2.2868   -3.0308 H   0  0  0  0  0  0  0  0  0  0  0  0
    6.8086    2.1776   -2.0980 O   0  0  0  0  0  0  0  0  0  0  0  0
    6.8295    3.5057   -2.6237 C   0  0  0  0  0  0  0  0  0  0  0  0
    6.6480    1.4130   -4.2460 O   0  0  0  0  0  0  0  0  0  0  0  0
    5.9036    3.7170   -3.1673 H   0  0  0  0  0  0  0  0  0  0  0  0
    7.7023    3.6479   -3.2685 H   0  0  0  0  0  0  0  0  0  0  0  0
    6.9039    4.2005   -1.7825 H   0  0  0  0  0  0  0  0  0  0  0  0
    9.7873   -2.1851   -4.1059 O   0  0  0  0  0  0  0  0  0  0  0  0
    9.8514   -3.5441   -4.5411 C   0  0  0  0  0  0  0  0  0  0  0  0
    9.4427   -2.9722   -1.9917 O   0  0  0  0  0  0  0  0  0  0  0  0
   10.6855   -4.0617   -4.0565 H   0  0  0  0  0  0  0  0  0  0  0  0
   10.0222   -3.5469   -5.6209 H   0  0  0  0  0  0  0  0  0  0  0  0
    8.9057   -4.0566   -4.3378 H   0  0  0  0  0  0  0  0  0  0  0  0
   12.3220    1.2543   -2.2027 C   0  0  0  0  0  0  0  0  0  0  0  0
   12.6208   -1.2646   -2.6192 C   0  0  0  0  0  0  0  0  0  0  0  0
   12.9761   -0.2513   -0.3007 C   0  0  0  0  0  0  0  0  0  0  0  0
   12.6358   -1.1479    0.2365 H   0  0  0  0  0  0  0  0  0  0  0  0
   12.6517    0.5908    0.3290 H   0  0  0  0  0  0  0  0  0  0  0  0
   14.5406   -0.2619   -0.2828 C   0  0  0  0  0  0  0  0  0  0  0  0
   15.1524    0.9257   -1.0418 C   0  0  0  0  0  0  0  0  0  0  0  0
   15.1404   -1.5681   -0.8209 C   0  0  0  0  0  0  0  0  0  0  0  0
   15.0049   -0.1541    1.1882 C   0  0  0  0  0  0  0  0  0  0  0  0
   14.5800   -0.9556    1.8032 H   0  0  0  0  0  0  0  0  0  0  0  0
   14.7034    0.8021    1.6304 H   0  0  0  0  0  0  0  0  0  0  0  0
   16.0960   -0.2316    1.2673 H   0  0  0  0  0  0  0  0  0  0  0  0
   14.7096    1.8755   -0.7245 H   0  0  0  0  0  0  0  0  0  0  0  0
   15.0332    0.8235   -2.1238 H   0  0  0  0  0  0  0  0  0  0  0  0
   16.2325    0.9951   -0.8618 H   0  0  0  0  0  0  0  0  0  0  0  0
   12.8658    1.2673   -3.4485 O   0  0  0  0  0  0  0  0  0  0  0  0
   11.9894    2.2616   -1.5880 O   0  0  0  0  0  0  0  0  0  0  0  0
   13.0105    2.5697   -4.0175 C   0  0  0  0  0  0  0  0  0  0  0  0
   13.7150    3.1658   -3.4295 H   0  0  0  0  0  0  0  0  0  0  0  0
   12.0391    3.0699   -4.0856 H   0  0  0  0  0  0  0  0  0  0  0  0
   13.4108    2.4545   -5.0284 H   0  0  0  0  0  0  0  0  0  0  0  0
   12.4878   -2.2617   -2.1874 H   0  0  0  0  0  0  0  0  0  0  0  0
   13.6722   -1.1473   -2.8950 H   0  0  0  0  0  0  0  0  0  0  0  0
   12.0828   -1.2349   -3.5682 H   0  0  0  0  0  0  0  0  0  0  0  0
   14.5387   -2.6567   -0.2643 O   0  0  0  0  0  0  0  0  0  0  0  0
   16.0560   -1.6285   -1.6321 O   0  0  0  0  0  0  0  0  0  0  0  0
   15.0521   -3.9064   -0.7287 C   0  0  0  0  0  0  0  0  0  0  0  0
   16.1147   -4.0004   -0.4836 H   0  0  0  0  0  0  0  0  0  0  0  0
   14.8918   -4.0083   -1.8068 H   0  0  0  0  0  0  0  0  0  0  0  0
   14.5071   -4.7066   -0.2209 H   0  0  0  0  0  0  0  0  0  0  0  0
  1  2  1  0  0  0  0
  1  5  1  0  0  0  0
  1  6  1  0  0  0  0
  2  3  1  0  0  0  0
  2  4  1  0  0  0  0
  2  7  1  0  0  0  0
  3  8  2  0  0  0  0
  9  3  1  0  0  0  0
 10  4  1  0  0  0  0
 11  4  1  0  0  0  0
 12  4  1  0  0  0  0
 13  9  1  0  0  0  0
 14 13  1  0  0  0  0
 15 13  1  0  0  0  0
 16 13  1  0  0  0  0
 17 11  1  0  0  0  0
 18 11  1  0  0  0  0
 19 11  1  0  0  0  0
 20 19  1  0  0  0  0
 21 19  1  0  0  0  0
 22 19  1  0  0  0  0
 23 18  1  0  0  0  0
 24 18  1  0  0  0  0
 25 18  1  0  0  0  0
 26 17  1  0  0  0  0
 27 17  2  0  0  0  0
 28 26  1  0  0  0  0
 29 28  1  0  0  0  0
 30 28  1  0  0  0  0
 31 28  1  0  0  0  0
 32  1  1  0  0  0  0
 33 22  1  0  0  0  0
 34 22  1  0  0  0  0
 35 22  1  0  0  0  0
 36 35  1  0  0  0  0
 37 35  1  0  0  0  0
 38 35  1  0  0  0  0
 39 34  2  0  0  0  0
 40 34  1  0  0  0  0
 41 40  1  0  0  0  0
 42 41  1  0  0  0  0
 43 41  1  0  0  0  0
 44 41  1  0  0  0  0
 45 33  1  0  0  0  0
 46 33  1  0  0  0  0
 47 33  1  0  0  0  0
 48 38  1  0  0  0  0
 49 38  1  0  0  0  0
 50 38  1  0  0  0  0
 51 50  1  0  0  0  0
 52 50  1  0  0  0  0
 53 50  1  0  0  0  0
 54 49  1  0  0  0  0
 55 49  1  0  0  0  0
 56 53  1  0  0  0  0
 57 53  1  0  0  0  0
 58 53  1  0  0  0  0
 59 56  1  0  0  0  0
 60 56  1  0  0  0  0
 61 56  1  0  0  0  0
 62 58  1  0  0  0  0
 63 58  1  0  0  0  0
 64 58  1  0  0  0  0
 65 49  1  0  0  0  0
 66 48  1  0  0  0  0
 67 66  1  0  0  0  0
 68 48  2  0  0  0  0
 69 67  1  0  0  0  0
 70 67  1  0  0  0  0
 71 67  1  0  0  0  0
 72 57  1  0  0  0  0
 73 72  1  0  0  0  0
 74 57  2  0  0  0  0
 75 73  1  0  0  0  0
 76 73  1  0  0  0  0
 77 73  1  0  0  0  0
 78 64  1  0  0  0  0
 79 64  1  0  0  0  0
 80 64  1  0  0  0  0
 81 80  1  0  0  0  0
 82 80  1  0  0  0  0
 83 80  1  0  0  0  0
 84 83  1  0  0  0  0
 85 83  1  0  0  0  0
 86 83  1  0  0  0  0
 87 86  1  0  0  0  0
 88 86  1  0  0  0  0
 89 86  1  0  0  0  0
 90 84  1  0  0  0  0
 91 84  1  0  0  0  0
 92 84  1  0  0  0  0
 93 78  1  0  0  0  0
 94 78  2  0  0  0  0
 95 93  1  0  0  0  0
 96 95  1  0  0  0  0
 97 95  1  0  0  0  0
 98 95  1  0  0  0  0
 99 79  1  0  0  0  0
100 79  1  0  0  0  0
101 79  1  0  0  0  0
102 85  1  0  0  0  0
103 85  2  0  0  0  0
104102  1  0  0  0  0
105104  1  0  0  0  0
106104  1  0  0  0  0
107104  1  0  0  0  0
M  END
