
 OpenBabel09111214223D

149148  0  0  0  0  0  0  0  0999 V2000
    0.5230   -0.7035   -2.3184 C   0  0  0  0  0  0  0  0  0  0  0  0
    1.8503   -0.9838   -3.0202 C   0  0  0  0  0  0  0  0  0  0  0  0
    2.4079   -1.7471   -2.4644 H   0  0  0  0  0  0  0  0  0  0  0  0
    2.6151    0.2214   -3.0984 O   0  0  0  0  0  0  0  0  0  0  0  0
    1.6625   -1.3738   -4.0277 H   0  0  0  0  0  0  0  0  0  0  0  0
    3.8793    0.0015   -3.7282 C   0  0  0  0  0  0  0  0  0  0  0  0
    4.4534   -0.7440   -3.1651 H   0  0  0  0  0  0  0  0  0  0  0  0
    3.7307   -0.3871   -4.7428 H   0  0  0  0  0  0  0  0  0  0  0  0
    4.6578    1.3140   -3.7870 C   0  0  0  0  0  0  0  0  0  0  0  0
    4.0919    2.0546   -4.3647 H   0  0  0  0  0  0  0  0  0  0  0  0
    4.7901    1.7109   -2.7733 H   0  0  0  0  0  0  0  0  0  0  0  0
    5.9322    1.0917   -4.3951 O   0  0  0  0  0  0  0  0  0  0  0  0
    6.7020    2.2948   -4.4518 C   0  0  0  0  0  0  0  0  0  0  0  0
    6.8537    2.6910   -3.4406 H   0  0  0  0  0  0  0  0  0  0  0  0
    6.1660    3.0554   -5.0320 H   0  0  0  0  0  0  0  0  0  0  0  0
    8.0541    2.0097   -5.1014 C   0  0  0  0  0  0  0  0  0  0  0  0
    8.5876    1.2435   -4.5263 H   0  0  0  0  0  0  0  0  0  0  0  0
    7.9022    1.6212   -6.1156 H   0  0  0  0  0  0  0  0  0  0  0  0
    8.8282    3.2104   -5.1468 O   0  0  0  0  0  0  0  0  0  0  0  0
   10.0907    2.9953   -5.7813 C   0  0  0  0  0  0  0  0  0  0  0  0
   10.6524    2.2195   -5.2471 H   0  0  0  0  0  0  0  0  0  0  0  0
    9.9377    2.6486   -6.8103 H   0  0  0  0  0  0  0  0  0  0  0  0
   10.8907    4.2957   -5.7884 C   0  0  0  0  0  0  0  0  0  0  0  0
   10.3193    5.0803   -6.2986 H   0  0  0  0  0  0  0  0  0  0  0  0
   11.0674    4.6267   -4.7580 H   0  0  0  0  0  0  0  0  0  0  0  0
   12.1359    4.0881   -6.4585 O   0  0  0  0  0  0  0  0  0  0  0  0
   12.9387    5.2703   -6.4500 C   0  0  0  0  0  0  0  0  0  0  0  0
   13.1780    5.5510   -5.4173 H   0  0  0  0  0  0  0  0  0  0  0  0
   12.3886    6.1034   -6.9039 H   0  0  0  0  0  0  0  0  0  0  0  0
   14.2267    5.0205   -7.2305 C   0  0  0  0  0  0  0  0  0  0  0  0
   13.9849    4.7605   -8.2681 H   0  0  0  0  0  0  0  0  0  0  0  0
   14.7696    4.1750   -6.7915 H   0  0  0  0  0  0  0  0  0  0  0  0
   15.0429    6.1926   -7.1947 O   0  0  0  0  0  0  0  0  0  0  0  0
   16.2350    6.0250   -7.9646 C   0  0  0  0  0  0  0  0  0  0  0  0
   15.9783    5.8574   -9.0174 H   0  0  0  0  0  0  0  0  0  0  0  0
   16.7926    5.1489   -7.6123 H   0  0  0  0  0  0  0  0  0  0  0  0
   17.1041    7.2728   -7.8353 C   0  0  0  0  0  0  0  0  0  0  0  0
   16.5432    8.1532   -8.1711 H   0  0  0  0  0  0  0  0  0  0  0  0
   17.3704    7.4279   -6.7828 H   0  0  0  0  0  0  0  0  0  0  0  0
   18.2862    7.1206   -8.6239 O   0  0  0  0  0  0  0  0  0  0  0  0
   19.1548    8.2454   -8.4780 C   0  0  0  0  0  0  0  0  0  0  0  0
   19.4649    8.3431   -7.4307 H   0  0  0  0  0  0  0  0  0  0  0  0
   18.6291    9.1664   -8.7575 H   0  0  0  0  0  0  0  0  0  0  0  0
   20.3847    8.0678   -9.3639 C   0  0  0  0  0  0  0  0  0  0  0  0
   20.0792    8.0010  -10.4149 H   0  0  0  0  0  0  0  0  0  0  0  0
   20.8994    7.1352   -9.1041 H   0  0  0  0  0  0  0  0  0  0  0  0
   21.2624    9.1789   -9.1777 O   0  0  0  0  0  0  0  0  0  0  0  0
    0.7131   -0.3153   -1.3105 H   0  0  0  0  0  0  0  0  0  0  0  0
   -0.2471   -1.9055   -2.2424 O   0  0  0  0  0  0  0  0  0  0  0  0
   -0.0334    0.0624   -2.8719 H   0  0  0  0  0  0  0  0  0  0  0  0
   22.4294    9.0729   -9.9940 C   0  0  0  0  0  0  0  0  0  0  0  0
   22.1461    9.0604  -11.0532 H   0  0  0  0  0  0  0  0  0  0  0  0
   22.9587    8.1373   -9.7774 H   0  0  0  0  0  0  0  0  0  0  0  0
   23.3460   10.2603   -9.7158 C   0  0  0  0  0  0  0  0  0  0  0  0
   23.6251   10.2698   -8.6552 H   0  0  0  0  0  0  0  0  0  0  0  0
   22.8152   11.1959   -9.9295 H   0  0  0  0  0  0  0  0  0  0  0  0
   24.5173   10.1677  -10.5282 O   0  0  0  0  0  0  0  0  0  0  0  0
   -1.4913   -1.6881   -1.5725 C   0  0  0  0  0  0  0  0  0  0  0  0
   -2.0660   -0.9113   -2.0910 H   0  0  0  0  0  0  0  0  0  0  0  0
   -1.3084   -1.3412   -0.5485 H   0  0  0  0  0  0  0  0  0  0  0  0
   -2.2942   -2.9869   -1.5416 C   0  0  0  0  0  0  0  0  0  0  0  0
   -1.7229   -3.7639   -1.0197 H   0  0  0  0  0  0  0  0  0  0  0  0
   -2.4729   -3.3345   -2.5662 H   0  0  0  0  0  0  0  0  0  0  0  0
   -3.5397   -2.7670   -0.8749 O   0  0  0  0  0  0  0  0  0  0  0  0
   -4.3373   -3.9531   -0.8499 C   0  0  0  0  0  0  0  0  0  0  0  0
   -3.7971   -4.7576   -0.3366 H   0  0  0  0  0  0  0  0  0  0  0  0
   -4.5414   -4.2881   -1.8740 H   0  0  0  0  0  0  0  0  0  0  0  0
   -5.6542   -3.6740   -0.1280 C   0  0  0  0  0  0  0  0  0  0  0  0
   -6.1880   -2.8602   -0.6332 H   0  0  0  0  0  0  0  0  0  0  0  0
   -5.4517   -3.3533    0.9009 H   0  0  0  0  0  0  0  0  0  0  0  0
   -6.4582   -4.8559   -0.1221 O   0  0  0  0  0  0  0  0  0  0  0  0
   -7.7062   -4.6402    0.5413 C   0  0  0  0  0  0  0  0  0  0  0  0
   -8.2595   -3.8329    0.0470 H   0  0  0  0  0  0  0  0  0  0  0  0
   -7.5305   -4.3383    1.5807 H   0  0  0  0  0  0  0  0  0  0  0  0
   -8.5309   -5.9253    0.5090 C   0  0  0  0  0  0  0  0  0  0  0  0
   -7.9763   -6.7325    1.0023 H   0  0  0  0  0  0  0  0  0  0  0  0
   -8.7041   -6.2265   -0.5312 H   0  0  0  0  0  0  0  0  0  0  0  0
   -9.7812   -5.7168    1.1709 O   0  0  0  0  0  0  0  0  0  0  0  0
  -10.5802   -6.9022    1.1590 C   0  0  0  0  0  0  0  0  0  0  0  0
  -10.0450   -7.7191    1.6579 H   0  0  0  0  0  0  0  0  0  0  0  0
  -10.7734   -7.2126    0.1250 H   0  0  0  0  0  0  0  0  0  0  0  0
  -11.9051   -6.6441    1.8737 C   0  0  0  0  0  0  0  0  0  0  0  0
  -12.4446   -5.8311    1.3734 H   0  0  0  0  0  0  0  0  0  0  0  0
  -11.7148   -6.3337    2.9080 H   0  0  0  0  0  0  0  0  0  0  0  0
  -12.6930   -7.8364    1.8584 O   0  0  0  0  0  0  0  0  0  0  0  0
  -13.9502   -7.6494    2.5125 C   0  0  0  0  0  0  0  0  0  0  0  0
  -14.5173   -6.8533    2.0155 H   0  0  0  0  0  0  0  0  0  0  0  0
  -13.7905   -7.3476    3.5545 H   0  0  0  0  0  0  0  0  0  0  0  0
  -14.7421   -8.9542    2.4677 C   0  0  0  0  0  0  0  0  0  0  0  0
  -14.1723   -9.7481    2.9654 H   0  0  0  0  0  0  0  0  0  0  0  0
  -14.8939   -9.2572    1.4246 H   0  0  0  0  0  0  0  0  0  0  0  0
  -16.0062   -8.7832    3.1138 O   0  0  0  0  0  0  0  0  0  0  0  0
  -16.7662   -9.9937    3.0875 C   0  0  0  0  0  0  0  0  0  0  0  0
  -16.2143  -10.7921    3.5981 H   0  0  0  0  0  0  0  0  0  0  0  0
  -16.9273  -10.3115    2.0502 H   0  0  0  0  0  0  0  0  0  0  0  0
  -18.1144   -9.7834    3.7730 C   0  0  0  0  0  0  0  0  0  0  0  0
  -18.6713   -8.9884    3.2631 H   0  0  0  0  0  0  0  0  0  0  0  0
  -17.9597   -9.4719    4.8128 H   0  0  0  0  0  0  0  0  0  0  0  0
  -18.8549  -11.0046    3.7329 O   0  0  0  0  0  0  0  0  0  0  0  0
  -20.1374  -10.8718    4.3485 C   0  0  0  0  0  0  0  0  0  0  0  0
  -20.7219  -10.0979    3.8371 H   0  0  0  0  0  0  0  0  0  0  0  0
  -20.0228  -10.5694    5.3962 H   0  0  0  0  0  0  0  0  0  0  0  0
  -20.8688  -12.2097    4.2717 C   0  0  0  0  0  0  0  0  0  0  0  0
  -20.2812  -12.9803    4.7853 H   0  0  0  0  0  0  0  0  0  0  0  0
  -20.9712  -12.5134    3.2228 H   0  0  0  0  0  0  0  0  0  0  0  0
  -22.1601  -12.0996    4.8746 O   0  0  0  0  0  0  0  0  0  0  0  0
  -22.8630  -13.3429    4.8141 C   0  0  0  0  0  0  0  0  0  0  0  0
  -22.2930  -14.1204    5.3369 H   0  0  0  0  0  0  0  0  0  0  0  0
  -22.9761  -13.6585    3.7698 H   0  0  0  0  0  0  0  0  0  0  0  0
  -24.2395  -13.1972    5.4567 C   0  0  0  0  0  0  0  0  0  0  0  0
  -24.8144  -12.4238    4.9336 H   0  0  0  0  0  0  0  0  0  0  0  0
  -24.1312  -12.8858    6.5024 H   0  0  0  0  0  0  0  0  0  0  0  0
  -24.9252  -14.4488    5.3867 O   0  0  0  0  0  0  0  0  0  0  0  0
  -26.2250  -14.3719    5.9734 C   0  0  0  0  0  0  0  0  0  0  0  0
  -26.8269  -13.6154    5.4560 H   0  0  0  0  0  0  0  0  0  0  0  0
  -26.1455  -14.0746    7.0259 H   0  0  0  0  0  0  0  0  0  0  0  0
  -26.9074  -15.7332    5.8714 C   0  0  0  0  0  0  0  0  0  0  0  0
  -26.3041  -16.4894    6.3880 H   0  0  0  0  0  0  0  0  0  0  0  0
  -26.9854  -16.0303    4.8187 H   0  0  0  0  0  0  0  0  0  0  0  0
  -28.2083  -15.6628    6.4568 O   0  0  0  0  0  0  0  0  0  0  0  0
  -28.8818  -16.9204    6.3818 C   0  0  0  0  0  0  0  0  0  0  0  0
  -28.3006  -17.6896    6.9044 H   0  0  0  0  0  0  0  0  0  0  0  0
  -28.9821  -17.2310    5.3348 H   0  0  0  0  0  0  0  0  0  0  0  0
  -30.2631  -16.7980    7.0173 C   0  0  0  0  0  0  0  0  0  0  0  0
  -30.8451  -16.0295    6.4944 H   0  0  0  0  0  0  0  0  0  0  0  0
  -30.1634  -16.4879    8.0644 H   0  0  0  0  0  0  0  0  0  0  0  0
  -30.9350  -18.0562    6.9416 O   0  0  0  0  0  0  0  0  0  0  0  0
  -32.2356  -17.9867    7.5268 C   0  0  0  0  0  0  0  0  0  0  0  0
  -32.8411  -17.2324    7.0102 H   0  0  0  0  0  0  0  0  0  0  0  0
  -32.1594  -17.6906    8.5799 H   0  0  0  0  0  0  0  0  0  0  0  0
  -32.9105  -19.3490    7.4221 C   0  0  0  0  0  0  0  0  0  0  0  0
  -32.3170  -20.1099    7.9402 H   0  0  0  0  0  0  0  0  0  0  0  0
  -32.9974  -19.6525    6.3734 H   0  0  0  0  0  0  0  0  0  0  0  0
  -34.2089  -19.3006    8.0002 O   0  0  0  0  0  0  0  0  0  0  0  0
  -34.5911  -20.1899    7.9065 H   0  0  0  0  0  0  0  0  0  0  0  0
   25.4056   11.2586  -10.2782 C   0  0  0  0  0  0  0  0  0  0  0  0
   25.7083   11.2612   -9.2241 H   0  0  0  0  0  0  0  0  0  0  0  0
   24.8990   12.2096  -10.4823 H   0  0  0  0  0  0  0  0  0  0  0  0
   26.6386   11.1320  -11.1665 C   0  0  0  0  0  0  0  0  0  0  0  0
   26.3390   11.1349  -12.2213 H   0  0  0  0  0  0  0  0  0  0  0  0
   27.1466   10.1814  -10.9649 H   0  0  0  0  0  0  0  0  0  0  0  0
   27.5206   12.2237  -10.9048 O   0  0  0  0  0  0  0  0  0  0  0  0
   28.6947   12.1570  -11.7110 C   0  0  0  0  0  0  0  0  0  0  0  0
   28.4183   12.1890  -12.7705 H   0  0  0  0  0  0  0  0  0  0  0  0
   29.2317   11.2243  -11.5068 H   0  0  0  0  0  0  0  0  0  0  0  0
   29.5759   13.3432  -11.3726 C   0  0  0  0  0  0  0  0  0  0  0  0
   29.8467   13.3323  -10.3115 H   0  0  0  0  0  0  0  0  0  0  0  0
   29.0448   14.2832  -11.5558 H   0  0  0  0  0  0  0  0  0  0  0  0
   30.4915   13.3328  -11.9705 H   0  0  0  0  0  0  0  0  0  0  0  0
  2  1  1  0  0  0  0
  3  2  1  0  0  0  0
  4  2  1  0  0  0  0
  5  2  1  0  0  0  0
  6  4  1  0  0  0  0
  7  6  1  0  0  0  0
  8  6  1  0  0  0  0
  9  6  1  0  0  0  0
 10  9  1  0  0  0  0
 11  9  1  0  0  0  0
 12  9  1  0  0  0  0
 13 12  1  0  0  0  0
 14 13  1  0  0  0  0
 15 13  1  0  0  0  0
 16 13  1  0  0  0  0
 17 16  1  0  0  0  0
 18 16  1  0  0  0  0
 19 16  1  0  0  0  0
 20 19  1  0  0  0  0
 21 20  1  0  0  0  0
 22 20  1  0  0  0  0
 23 20  1  0  0  0  0
 24 23  1  0  0  0  0
 25 23  1  0  0  0  0
 26 23  1  0  0  0  0
 27 26  1  0  0  0  0
 28 27  1  0  0  0  0
 29 27  1  0  0  0  0
 30 27  1  0  0  0  0
 31 30  1  0  0  0  0
 32 30  1  0  0  0  0
 33 30  1  0  0  0  0
 34 33  1  0  0  0  0
 35 34  1  0  0  0  0
 36 34  1  0  0  0  0
 37 34  1  0  0  0  0
 38 37  1  0  0  0  0
 39 37  1  0  0  0  0
 40 37  1  0  0  0  0
 41 40  1  0  0  0  0
 42 41  1  0  0  0  0
 43 41  1  0  0  0  0
 44 41  1  0  0  0  0
 45 44  1  0  0  0  0
 46 44  1  0  0  0  0
 47 44  1  0  0  0  0
 48  1  1  0  0  0  0
 49  1  1  0  0  0  0
 50  1  1  0  0  0  0
 51 47  1  0  0  0  0
 52 51  1  0  0  0  0
 53 51  1  0  0  0  0
 54 51  1  0  0  0  0
 55 54  1  0  0  0  0
 56 54  1  0  0  0  0
 57 54  1  0  0  0  0
 58 49  1  0  0  0  0
 59 58  1  0  0  0  0
 60 58  1  0  0  0  0
 61 58  1  0  0  0  0
 62 61  1  0  0  0  0
 63 61  1  0  0  0  0
 64 61  1  0  0  0  0
 65 64  1  0  0  0  0
 66 65  1  0  0  0  0
 67 65  1  0  0  0  0
 68 65  1  0  0  0  0
 69 68  1  0  0  0  0
 70 68  1  0  0  0  0
 71 68  1  0  0  0  0
 72 71  1  0  0  0  0
 73 72  1  0  0  0  0
 74 72  1  0  0  0  0
 75 72  1  0  0  0  0
 76 75  1  0  0  0  0
 77 75  1  0  0  0  0
 78 75  1  0  0  0  0
 79 78  1  0  0  0  0
 80 79  1  0  0  0  0
 81 79  1  0  0  0  0
 82 79  1  0  0  0  0
 83 82  1  0  0  0  0
 84 82  1  0  0  0  0
 85 82  1  0  0  0  0
 86 85  1  0  0  0  0
 87 86  1  0  0  0  0
 88 86  1  0  0  0  0
 89 86  1  0  0  0  0
 90 89  1  0  0  0  0
 91 89  1  0  0  0  0
 92 89  1  0  0  0  0
 93 92  1  0  0  0  0
 94 93  1  0  0  0  0
 95 93  1  0  0  0  0
 96 93  1  0  0  0  0
 97 96  1  0  0  0  0
 98 96  1  0  0  0  0
 99 96  1  0  0  0  0
100 99  1  0  0  0  0
101100  1  0  0  0  0
102100  1  0  0  0  0
103100  1  0  0  0  0
104103  1  0  0  0  0
105103  1  0  0  0  0
106103  1  0  0  0  0
107106  1  0  0  0  0
108107  1  0  0  0  0
109107  1  0  0  0  0
110107  1  0  0  0  0
111110  1  0  0  0  0
112110  1  0  0  0  0
113110  1  0  0  0  0
114113  1  0  0  0  0
115114  1  0  0  0  0
116114  1  0  0  0  0
117114  1  0  0  0  0
118117  1  0  0  0  0
119117  1  0  0  0  0
120117  1  0  0  0  0
121120  1  0  0  0  0
122121  1  0  0  0  0
123121  1  0  0  0  0
124121  1  0  0  0  0
125124  1  0  0  0  0
126124  1  0  0  0  0
127124  1  0  0  0  0
128127  1  0  0  0  0
129128  1  0  0  0  0
130128  1  0  0  0  0
131128  1  0  0  0  0
132131  1  0  0  0  0
133131  1  0  0  0  0
134131  1  0  0  0  0
135134  1  0  0  0  0
136 57  1  0  0  0  0
137136  1  0  0  0  0
138136  1  0  0  0  0
139136  1  0  0  0  0
140139  1  0  0  0  0
141139  1  0  0  0  0
142139  1  0  0  0  0
143142  1  0  0  0  0
144143  1  0  0  0  0
145143  1  0  0  0  0
146143  1  0  0  0  0
147146  1  0  0  0  0
148146  1  0  0  0  0
149146  1  0  0  0  0
M  END
