
 OpenBabel06181210123D

 97101  0  0  0  0  0  0  0  0999 V2000
    5.8195    2.3681   -2.2460 C   0  0  0  0  0  0  0  0  0  0  0  0
    6.7088    1.4901   -2.8963 C   0  0  0  0  0  0  0  0  0  0  0  0
    8.0912    1.6510   -2.7012 C   0  0  0  0  0  0  0  0  0  0  0  0
    8.5889    2.6548   -1.8697 C   0  0  0  0  0  0  0  0  0  0  0  0
    7.7117    3.5148   -1.2198 C   0  0  0  0  0  0  0  0  0  0  0  0
    6.3384    3.3709   -1.4052 C   0  0  0  0  0  0  0  0  0  0  0  0
    4.3141    2.2735   -2.3858 C   0  0  0  0  0  0  0  0  0  0  0  0
    3.6978    1.3766   -1.3011 C   0  0  0  0  0  0  0  0  0  0  0  0
    2.1533    1.4946   -1.1860 C   0  0  0  0  0  0  0  0  0  0  0  0
    1.5998    0.4165   -0.2094 C   0  0  0  0  0  0  0  0  0  0  0  0
    0.0930    0.0280   -0.3775 C   0  0  0  0  0  0  0  0  0  0  0  0
   -0.1800   -1.2748    0.4451 C   0  0  0  0  0  0  0  0  0  0  0  0
   -1.5432   -1.9846    0.1974 C   0  0  0  0  0  0  0  0  0  0  0  0
   -1.4549   -3.4821    0.6135 C   0  0  0  0  0  0  0  0  0  0  0  0
   -2.6917   -4.3367    0.2367 C   0  0  0  0  0  0  0  0  0  0  0  0
   -2.6710   -4.7417   -1.2434 C   0  0  0  0  0  0  0  0  0  0  0  0
   -2.8068   -5.5564    1.1512 C   0  0  0  0  0  0  0  0  0  0  0  0
   -3.8643   -5.6927    2.0816 C   0  0  0  0  0  0  0  0  0  0  0  0
   -3.9115   -6.8256    2.9126 C   0  0  0  0  0  0  0  0  0  0  0  0
   -2.9316   -7.8129    2.8366 C   0  0  0  0  0  0  0  0  0  0  0  0
   -1.8875   -7.6814    1.9296 C   0  0  0  0  0  0  0  0  0  0  0  0
   -1.8242   -6.5636    1.0970 C   0  0  0  0  0  0  0  0  0  0  0  0
   -2.7764   -1.2987    0.7951 C   0  0  0  0  0  0  0  0  0  0  0  0
   -3.7972   -0.9520   -0.1221 C   0  0  0  0  0  0  0  0  0  0  0  0
   -4.9797   -0.3328    0.2798 C   0  0  0  0  0  0  0  0  0  0  0  0
   -5.1810   -0.0467    1.6196 C   0  0  0  0  0  0  0  0  0  0  0  0
   -4.2040   -0.3922    2.5491 C   0  0  0  0  0  0  0  0  0  0  0  0
   -3.0030   -1.0284    2.1657 C   0  0  0  0  0  0  0  0  0  0  0  0
   -0.8518    1.1652   -0.0175 C   0  0  0  0  0  0  0  0  0  0  0  0
   -1.7354    1.7419   -0.9587 C   0  0  0  0  0  0  0  0  0  0  0  0
   -2.5812    2.7922   -0.5573 C   0  0  0  0  0  0  0  0  0  0  0  0
   -2.5633    3.2724    0.7506 C   0  0  0  0  0  0  0  0  0  0  0  0
   -1.7002    2.7096    1.6794 C   0  0  0  0  0  0  0  0  0  0  0  0
   -0.8556    1.6682    1.2982 C   0  0  0  0  0  0  0  0  0  0  0  0
    1.7121    2.9359   -0.9164 C   0  0  0  0  0  0  0  0  0  0  0  0
    1.0634    3.5964   -1.9869 C   0  0  0  0  0  0  0  0  0  0  0  0
    0.6110    4.9108   -1.8844 C   0  0  0  0  0  0  0  0  0  0  0  0
    0.8021    5.6098   -0.7041 C   0  0  0  0  0  0  0  0  0  0  0  0
    1.4553    4.9939    0.3601 C   0  0  0  0  0  0  0  0  0  0  0  0
    1.9332    3.6683    0.2736 C   0  0  0  0  0  0  0  0  0  0  0  0
    6.2246    0.3996   -3.8104 C   0  0  0  0  0  0  0  0  0  0  0  0
    8.7963    0.9898   -3.2008 H   0  0  0  0  0  0  0  0  0  0  0  0
    9.6609    2.7645   -1.7309 H   0  0  0  0  0  0  0  0  0  0  0  0
    8.0935    4.2980   -0.5710 H   0  0  0  0  0  0  0  0  0  0  0  0
    5.6625    4.0515   -0.8894 H   0  0  0  0  0  0  0  0  0  0  0  0
    3.9158    3.2930   -2.3363 H   0  0  0  0  0  0  0  0  0  0  0  0
    4.0377    1.9059   -3.3805 H   0  0  0  0  0  0  0  0  0  0  0  0
    3.9566    0.3352   -1.5346 H   0  0  0  0  0  0  0  0  0  0  0  0
    4.1726    1.5760   -0.3377 H   0  0  0  0  0  0  0  0  0  0  0  0
    1.7713    1.2053   -2.1760 H   0  0  0  0  0  0  0  0  0  0  0  0
    2.1764   -0.5009   -0.3947 H   0  0  0  0  0  0  0  0  0  0  0  0
    1.8118    0.6760    0.8304 H   0  0  0  0  0  0  0  0  0  0  0  0
   -0.0352   -0.2469   -1.4302 H   0  0  0  0  0  0  0  0  0  0  0  0
    0.6036   -1.9893    0.1550 H   0  0  0  0  0  0  0  0  0  0  0  0
   -0.0124   -1.0936    1.5084 H   0  0  0  0  0  0  0  0  0  0  0  0
   -1.6591   -1.9921   -0.8953 H   0  0  0  0  0  0  0  0  0  0  0  0
   -0.5665   -3.9277    0.1446 H   0  0  0  0  0  0  0  0  0  0  0  0
   -1.2700   -3.5539    1.6882 H   0  0  0  0  0  0  0  0  0  0  0  0
   -3.5927   -3.7346    0.3611 H   0  0  0  0  0  0  0  0  0  0  0  0
   -1.7669   -5.3013   -1.5058 H   0  0  0  0  0  0  0  0  0  0  0  0
   -3.5339   -5.3720   -1.4864 H   0  0  0  0  0  0  0  0  0  0  0  0
   -2.7126   -3.8595   -1.8901 H   0  0  0  0  0  0  0  0  0  0  0  0
   -4.9499   -4.6587    2.2258 C   0  0  0  0  0  0  0  0  0  0  0  0
   -4.7188   -6.9435    3.6325 H   0  0  0  0  0  0  0  0  0  0  0  0
   -2.9836   -8.6808    3.4880 H   0  0  0  0  0  0  0  0  0  0  0  0
   -1.1190   -8.4471    1.8707 H   0  0  0  0  0  0  0  0  0  0  0  0
   -0.9907   -6.4817    0.4034 H   0  0  0  0  0  0  0  0  0  0  0  0
   -3.6732   -1.1629   -1.1825 H   0  0  0  0  0  0  0  0  0  0  0  0
   -5.7336   -0.0689   -0.4555 H   0  0  0  0  0  0  0  0  0  0  0  0
   -6.0929    0.4452    1.9438 H   0  0  0  0  0  0  0  0  0  0  0  0
   -4.3866   -0.1573    3.5964 H   0  0  0  0  0  0  0  0  0  0  0  0
   -2.0413   -1.3557    3.2754 C   0  0  0  0  0  0  0  0  0  0  0  0
   -1.8152    1.2722   -2.3856 C   0  0  0  0  0  0  0  0  0  0  0  0
   -3.2237    4.0833    1.0420 H   0  0  0  0  0  0  0  0  0  0  0  0
   -1.6818    3.0766    2.7009 H   0  0  0  0  0  0  0  0  0  0  0  0
   -0.1923    1.2455    2.0475 H   0  0  0  0  0  0  0  0  0  0  0  0
    0.8960    3.0768   -2.9284 H   0  0  0  0  0  0  0  0  0  0  0  0
    0.1035    5.3794   -2.7219 H   0  0  0  0  0  0  0  0  0  0  0  0
    0.4426    6.6297   -0.6074 H   0  0  0  0  0  0  0  0  0  0  0  0
    1.5891    5.5626    1.2789 H   0  0  0  0  0  0  0  0  0  0  0  0
    2.6072    3.1246    1.5034 C   0  0  0  0  0  0  0  0  0  0  0  0
   -5.5009   -4.5488    1.2864 H   0  0  0  0  0  0  0  0  0  0  0  0
   -4.5210   -3.6972    2.5218 H   0  0  0  0  0  0  0  0  0  0  0  0
   -5.6761   -4.9399    2.9960 H   0  0  0  0  0  0  0  0  0  0  0  0
   -1.1478   -0.7324    3.2209 H   0  0  0  0  0  0  0  0  0  0  0  0
   -1.7700   -2.4108    3.2778 H   0  0  0  0  0  0  0  0  0  0  0  0
   -2.4895   -1.1648    4.2578 H   0  0  0  0  0  0  0  0  0  0  0  0
   -2.1173    0.2222   -2.4294 H   0  0  0  0  0  0  0  0  0  0  0  0
   -0.8507    1.3904   -2.8866 H   0  0  0  0  0  0  0  0  0  0  0  0
   -2.5511    1.8466   -2.9585 H   0  0  0  0  0  0  0  0  0  0  0  0
   -3.2666    3.2464   -1.2683 H   0  0  0  0  0  0  0  0  0  0  0  0
    3.5318    2.5995    1.2702 H   0  0  0  0  0  0  0  0  0  0  0  0
    1.9346    2.4658    2.0560 H   0  0  0  0  0  0  0  0  0  0  0  0
    2.8930    3.9336    2.1861 H   0  0  0  0  0  0  0  0  0  0  0  0
    5.7386    0.8313   -4.6908 H   0  0  0  0  0  0  0  0  0  0  0  0
    5.5228   -0.2573   -3.2883 H   0  0  0  0  0  0  0  0  0  0  0  0
    7.0521   -0.2259   -4.1624 H   0  0  0  0  0  0  0  0  0  0  0  0
  1  2  2  0  0  0  0
  1  6  1  0  0  0  0
  1  7  1  0  0  0  0
  2  3  1  0  0  0  0
  2 41  1  0  0  0  0
  3  4  2  0  0  0  0
  3 42  1  0  0  0  0
  4  5  1  0  0  0  0
  4 43  1  0  0  0  0
  5  6  2  0  0  0  0
  5 44  1  0  0  0  0
  6 45  1  0  0  0  0
  7  8  1  0  0  0  0
  7 46  1  0  0  0  0
  7 47  1  0  0  0  0
  8  9  1  0  0  0  0
  8 48  1  0  0  0  0
  8 49  1  0  0  0  0
  9 10  1  0  0  0  0
  9 35  1  0  0  0  0
  9 50  1  0  0  0  0
 10 11  1  0  0  0  0
 10 51  1  0  0  0  0
 10 52  1  0  0  0  0
 11 12  1  0  0  0  0
 11 29  1  0  0  0  0
 11 53  1  0  0  0  0
 12 13  1  0  0  0  0
 12 54  1  0  0  0  0
 12 55  1  0  0  0  0
 13 14  1  0  0  0  0
 13 23  1  0  0  0  0
 13 56  1  0  0  0  0
 14 15  1  0  0  0  0
 14 57  1  0  0  0  0
 14 58  1  0  0  0  0
 15 16  1  0  0  0  0
 15 17  1  0  0  0  0
 15 59  1  0  0  0  0
 16 60  1  0  0  0  0
 16 61  1  0  0  0  0
 16 62  1  0  0  0  0
 17 18  2  0  0  0  0
 17 22  1  0  0  0  0
 18 19  1  0  0  0  0
 18 63  1  0  0  0  0
 19 20  2  0  0  0  0
 19 64  1  0  0  0  0
 20 21  1  0  0  0  0
 20 65  1  0  0  0  0
 21 22  2  0  0  0  0
 21 66  1  0  0  0  0
 22 67  1  0  0  0  0
 23 24  2  0  0  0  0
 23 28  1  0  0  0  0
 24 25  1  0  0  0  0
 24 68  1  0  0  0  0
 25 26  2  0  0  0  0
 25 69  1  0  0  0  0
 26 27  1  0  0  0  0
 26 70  1  0  0  0  0
 27 28  2  0  0  0  0
 27 71  1  0  0  0  0
 28 72  1  0  0  0  0
 29 30  2  0  0  0  0
 29 34  1  0  0  0  0
 30 31  1  0  0  0  0
 30 73  1  0  0  0  0
 31 32  2  0  0  0  0
 32 33  1  0  0  0  0
 32 74  1  0  0  0  0
 33 34  2  0  0  0  0
 33 75  1  0  0  0  0
 34 76  1  0  0  0  0
 35 36  2  0  0  0  0
 35 40  1  0  0  0  0
 36 37  1  0  0  0  0
 36 77  1  0  0  0  0
 37 38  2  0  0  0  0
 37 78  1  0  0  0  0
 38 39  1  0  0  0  0
 38 79  1  0  0  0  0
 39 40  2  0  0  0  0
 39 80  1  0  0  0  0
 40 81  1  0  0  0  0
 82 63  1  0  0  0  0
 83 63  1  0  0  0  0
 84 63  1  0  0  0  0
 85 72  1  0  0  0  0
 86 72  1  0  0  0  0
 87 72  1  0  0  0  0
 88 73  1  0  0  0  0
 89 73  1  0  0  0  0
 90 73  1  0  0  0  0
 91 31  1  0  0  0  0
 92 81  1  0  0  0  0
 93 81  1  0  0  0  0
 94 81  1  0  0  0  0
 95 41  1  0  0  0  0
 96 41  1  0  0  0  0
 97 41  1  0  0  0  0
M  END
