
 OpenBabel10311216053D

274290  0  0  0  0  0  0  0  0999 V2000
   -0.1071    0.2529   -0.7343 C   0  0  0  0  0  0  0  0  0  0  0  0
   -0.9568   -0.8538   -0.8731 C   0  0  0  0  0  0  0  0  0  0  0  0
   -1.9525   -1.1064    0.0717 C   0  0  0  0  0  0  0  0  0  0  0  0
   -2.1182   -0.2494    1.1574 C   0  0  0  0  0  0  0  0  0  0  0  0
   -1.2941    0.8655    1.2948 C   0  0  0  0  0  0  0  0  0  0  0  0
   -0.2959    1.1179    0.3523 C   0  0  0  0  0  0  0  0  0  0  0  0
    1.0278    0.4878   -1.7057 C   0  0  0  0  0  0  0  0  0  0  0  0
    2.0507   -0.6607   -1.7437 C   0  0  0  0  0  0  0  0  0  0  0  0
    1.5451   -1.5677   -2.0991 H   0  0  0  0  0  0  0  0  0  0  0  0
    2.7071   -0.9514   -0.3753 C   0  0  0  0  0  0  0  0  0  0  0  0
    2.8134   -0.4283   -2.4970 H   0  0  0  0  0  0  0  0  0  0  0  0
    1.9049   -1.0231    0.3672 H   0  0  0  0  0  0  0  0  0  0  0  0
    3.6632    0.1549    0.0562 C   0  0  0  0  0  0  0  0  0  0  0  0
    3.4127   -2.3310   -0.3935 C   0  0  0  0  0  0  0  0  0  0  0  0
    4.2956   -2.2853   -1.0432 H   0  0  0  0  0  0  0  0  0  0  0  0
    2.7477   -3.0787   -0.8437 H   0  0  0  0  0  0  0  0  0  0  0  0
    3.8323   -2.7923    1.0218 C   0  0  0  0  0  0  0  0  0  0  0  0
    2.6270   -3.1673    1.8808 C   0  0  0  0  0  0  0  0  0  0  0  0
    4.3516   -1.9556    1.5015 H   0  0  0  0  0  0  0  0  0  0  0  0
    4.8474   -3.9551    0.9381 C   0  0  0  0  0  0  0  0  0  0  0  0
    1.5400    1.4289   -1.4719 H   0  0  0  0  0  0  0  0  0  0  0  0
    0.5985    0.6190   -2.7069 H   0  0  0  0  0  0  0  0  0  0  0  0
    4.8324    0.4445   -0.6636 C   0  0  0  0  0  0  0  0  0  0  0  0
    3.4125    0.8659    1.2401 C   0  0  0  0  0  0  0  0  0  0  0  0
    5.0657   -0.0931   -1.5791 H   0  0  0  0  0  0  0  0  0  0  0  0
    5.7335    1.4060   -0.2021 C   0  0  0  0  0  0  0  0  0  0  0  0
    4.3137    1.8273    1.7000 C   0  0  0  0  0  0  0  0  0  0  0  0
    2.5208    0.6545    1.8268 H   0  0  0  0  0  0  0  0  0  0  0  0
    5.4759    2.0943    0.9809 C   0  0  0  0  0  0  0  0  0  0  0  0
    4.1150    2.3564    2.6279 H   0  0  0  0  0  0  0  0  0  0  0  0
    6.6445    1.6067   -0.7594 H   0  0  0  0  0  0  0  0  0  0  0  0
    6.1848    2.8319    1.3464 H   0  0  0  0  0  0  0  0  0  0  0  0
    0.3513    1.9821    0.4847 H   0  0  0  0  0  0  0  0  0  0  0  0
   -1.4204    1.5332    2.1425 H   0  0  0  0  0  0  0  0  0  0  0  0
   -2.8863   -0.4530    1.8983 H   0  0  0  0  0  0  0  0  0  0  0  0
   -2.5911   -1.9792   -0.0337 H   0  0  0  0  0  0  0  0  0  0  0  0
   -0.8350   -1.5405   -1.7071 H   0  0  0  0  0  0  0  0  0  0  0  0
    1.7893   -4.2439    1.5517 C   0  0  0  0  0  0  0  0  0  0  0  0
    2.3623   -2.4491    3.0575 C   0  0  0  0  0  0  0  0  0  0  0  0
    1.9661   -4.8272    0.6517 H   0  0  0  0  0  0  0  0  0  0  0  0
    0.7250   -4.5991    2.3825 C   0  0  0  0  0  0  0  0  0  0  0  0
    1.2977   -2.8048    3.8868 C   0  0  0  0  0  0  0  0  0  0  0  0
    2.9978   -1.6138    3.3431 H   0  0  0  0  0  0  0  0  0  0  0  0
    0.4810   -3.8813    3.5507 C   0  0  0  0  0  0  0  0  0  0  0  0
    1.1120   -2.2461    4.7998 H   0  0  0  0  0  0  0  0  0  0  0  0
    0.0920   -5.4426    2.1216 H   0  0  0  0  0  0  0  0  0  0  0  0
   -0.3419   -4.1639    4.2009 H   0  0  0  0  0  0  0  0  0  0  0  0
    5.6300   -3.7107    0.2090 H   0  0  0  0  0  0  0  0  0  0  0  0
    4.3492   -4.8541    0.5540 H   0  0  0  0  0  0  0  0  0  0  0  0
    5.4861   -4.2598    2.3113 C   0  0  0  0  0  0  0  0  0  0  0  0
    4.6751   -4.3326    3.0439 H   0  0  0  0  0  0  0  0  0  0  0  0
    6.4366   -3.1518    2.7585 C   0  0  0  0  0  0  0  0  0  0  0  0
    6.1867   -5.6348    2.2902 C   0  0  0  0  0  0  0  0  0  0  0  0
    7.0766   -5.5866    1.6501 H   0  0  0  0  0  0  0  0  0  0  0  0
    5.5260   -6.3812    1.8318 H   0  0  0  0  0  0  0  0  0  0  0  0
    6.5870   -6.0897    3.7093 C   0  0  0  0  0  0  0  0  0  0  0  0
    5.3731   -6.4536    4.5617 C   0  0  0  0  0  0  0  0  0  0  0  0
    7.1038   -5.2520    4.1895 H   0  0  0  0  0  0  0  0  0  0  0  0
    7.5974   -7.2515    3.6354 C   0  0  0  0  0  0  0  0  0  0  0  0
    8.3736   -7.0245    2.8939 H   0  0  0  0  0  0  0  0  0  0  0  0
    7.0941   -8.1579    3.2765 H   0  0  0  0  0  0  0  0  0  0  0  0
    8.2462   -7.5194    5.0079 C   0  0  0  0  0  0  0  0  0  0  0  0
    7.6032   -2.8429    2.0415 C   0  0  0  0  0  0  0  0  0  0  0  0
    8.4768   -1.8534    2.4962 C   0  0  0  0  0  0  0  0  0  0  0  0
    6.1659   -2.4373    3.9355 C   0  0  0  0  0  0  0  0  0  0  0  0
    7.8487   -3.3779    1.1284 H   0  0  0  0  0  0  0  0  0  0  0  0
    7.0400   -1.4485    4.3890 C   0  0  0  0  0  0  0  0  0  0  0  0
    5.2726   -2.6584    4.5163 H   0  0  0  0  0  0  0  0  0  0  0  0
    8.1970   -1.1584    3.6694 C   0  0  0  0  0  0  0  0  0  0  0  0
    6.8214   -0.9109    5.3067 H   0  0  0  0  0  0  0  0  0  0  0  0
    9.3812   -1.6309    1.9361 H   0  0  0  0  0  0  0  0  0  0  0  0
    8.8813   -0.3939    4.0258 H   0  0  0  0  0  0  0  0  0  0  0  0
    4.5199   -7.5142    4.2222 C   0  0  0  0  0  0  0  0  0  0  0  0
    5.1099   -5.7334    5.7379 C   0  0  0  0  0  0  0  0  0  0  0  0
    4.6943   -8.0976    3.3219 H   0  0  0  0  0  0  0  0  0  0  0  0
    3.4393   -7.8495    5.0403 C   0  0  0  0  0  0  0  0  0  0  0  0
    4.0293   -6.0694    6.5547 C   0  0  0  0  0  0  0  0  0  0  0  0
    5.7565   -4.9093    6.0308 H   0  0  0  0  0  0  0  0  0  0  0  0
    3.1953   -7.1285    6.2067 C   0  0  0  0  0  0  0  0  0  0  0  0
    3.8435   -5.5076    7.4657 H   0  0  0  0  0  0  0  0  0  0  0  0
    2.7914   -8.6783    4.7694 H   0  0  0  0  0  0  0  0  0  0  0  0
    2.3580   -7.3943    6.8454 H   0  0  0  0  0  0  0  0  0  0  0  0
    7.4400   -7.5753    5.7470 H   0  0  0  0  0  0  0  0  0  0  0  0
    9.1978   -6.3994    5.4234 C   0  0  0  0  0  0  0  0  0  0  0  0
    8.9467   -8.8906    5.0057 C   0  0  0  0  0  0  0  0  0  0  0  0
    9.8471   -8.8458    4.3804 H   0  0  0  0  0  0  0  0  0  0  0  0
    8.2958   -9.6426    4.5424 H   0  0  0  0  0  0  0  0  0  0  0  0
    9.3190   -9.3308    6.4343 C   0  0  0  0  0  0  0  0  0  0  0  0
    8.0883   -9.6904    7.2637 C   0  0  0  0  0  0  0  0  0  0  0  0
    9.8234   -8.4873    6.9173 H   0  0  0  0  0  0  0  0  0  0  0  0
   10.3322  -10.4873    6.3772 C   0  0  0  0  0  0  0  0  0  0  0  0
   11.1250  -10.2530    5.6555 H   0  0  0  0  0  0  0  0  0  0  0  0
    9.8406  -11.3929    5.9999 H   0  0  0  0  0  0  0  0  0  0  0  0
   10.9516  -10.7646    7.7589 C   0  0  0  0  0  0  0  0  0  0  0  0
   10.3474   -6.0896    4.6813 C   0  0  0  0  0  0  0  0  0  0  0  0
    8.9381   -5.6656    6.5919 C   0  0  0  0  0  0  0  0  0  0  0  0
   10.5835   -6.6377    3.7730 H   0  0  0  0  0  0  0  0  0  0  0  0
   11.2146   -5.0783    5.0993 C   0  0  0  0  0  0  0  0  0  0  0  0
    9.8060   -4.6555    7.0090 C   0  0  0  0  0  0  0  0  0  0  0  0
    8.0572   -5.8849    7.1910 H   0  0  0  0  0  0  0  0  0  0  0  0
   10.9447   -4.3628    6.2633 C   0  0  0  0  0  0  0  0  0  0  0  0
    9.5945   -4.1010    7.9189 H   0  0  0  0  0  0  0  0  0  0  0  0
   12.1038   -4.8524    4.5176 H   0  0  0  0  0  0  0  0  0  0  0  0
   11.6225   -3.5795    6.5900 H   0  0  0  0  0  0  0  0  0  0  0  0
    7.2425  -10.7536    6.9142 C   0  0  0  0  0  0  0  0  0  0  0  0
    7.7929   -8.9537    8.4220 C   0  0  0  0  0  0  0  0  0  0  0  0
    7.4398  -11.3481    6.0260 H   0  0  0  0  0  0  0  0  0  0  0  0
    6.1360  -11.0733    7.7034 C   0  0  0  0  0  0  0  0  0  0  0  0
    6.6866   -9.2742    9.2100 C   0  0  0  0  0  0  0  0  0  0  0  0
    8.4314   -8.1254    8.7208 H   0  0  0  0  0  0  0  0  0  0  0  0
    5.8590  -10.3346    8.8512 C   0  0  0  0  0  0  0  0  0  0  0  0
    6.4740   -8.6972   10.1056 H   0  0  0  0  0  0  0  0  0  0  0  0
    5.4920  -11.9020    7.4231 H   0  0  0  0  0  0  0  0  0  0  0  0
    4.9997  -10.5864    9.4660 H   0  0  0  0  0  0  0  0  0  0  0  0
   11.7019  -12.1075    7.7273 C   0  0  0  0  0  0  0  0  0  0  0  0
   12.6066  -12.0117    7.1136 H   0  0  0  0  0  0  0  0  0  0  0  0
   11.0843  -12.8691    7.2348 H   0  0  0  0  0  0  0  0  0  0  0  0
   12.0776  -12.5774    9.1430 C   0  0  0  0  0  0  0  0  0  0  0  0
   10.8493  -12.9441    9.9729 C   0  0  0  0  0  0  0  0  0  0  0  0
   12.5891  -11.7440    9.6363 H   0  0  0  0  0  0  0  0  0  0  0  0
   13.0798  -13.7419    9.0533 C   0  0  0  0  0  0  0  0  0  0  0  0
   13.8458  -13.5213    8.2993 H   0  0  0  0  0  0  0  0  0  0  0  0
   12.5666  -14.6468    8.7044 H   0  0  0  0  0  0  0  0  0  0  0  0
   13.7486  -14.0073   10.4131 C   0  0  0  0  0  0  0  0  0  0  0  0
   10.1264  -10.8713    8.4712 H   0  0  0  0  0  0  0  0  0  0  0  0
   11.8463   -9.6205    8.2301 C   0  0  0  0  0  0  0  0  0  0  0  0
   12.9955   -9.2370    7.5228 C   0  0  0  0  0  0  0  0  0  0  0  0
   11.5246   -8.9288    9.4088 C   0  0  0  0  0  0  0  0  0  0  0  0
   13.2780   -9.7493    6.6070 H   0  0  0  0  0  0  0  0  0  0  0  0
   13.7999   -8.1925    7.9828 C   0  0  0  0  0  0  0  0  0  0  0  0
   12.3295   -7.8853    9.8680 C   0  0  0  0  0  0  0  0  0  0  0  0
   10.6406   -9.2040    9.9801 H   0  0  0  0  0  0  0  0  0  0  0  0
   13.4674   -7.5176    9.1548 C   0  0  0  0  0  0  0  0  0  0  0  0
   12.0681   -7.3615   10.7829 H   0  0  0  0  0  0  0  0  0  0  0  0
   14.6878   -7.9071    7.4258 H   0  0  0  0  0  0  0  0  0  0  0  0
   14.0950   -6.7064    9.5122 H   0  0  0  0  0  0  0  0  0  0  0  0
    9.9747  -13.9721    9.5903 C   0  0  0  0  0  0  0  0  0  0  0  0
   10.5755  -12.2390   11.1559 C   0  0  0  0  0  0  0  0  0  0  0  0
   10.1537  -14.5407    8.6815 H   0  0  0  0  0  0  0  0  0  0  0  0
    8.8582  -14.2847   10.3682 C   0  0  0  0  0  0  0  0  0  0  0  0
    9.4595  -12.5526   11.9329 C   0  0  0  0  0  0  0  0  0  0  0  0
   11.2351  -11.4369   11.4794 H   0  0  0  0  0  0  0  0  0  0  0  0
    8.6009  -13.5751   11.5388 C   0  0  0  0  0  0  0  0  0  0  0  0
    9.2615  -11.9977   12.8456 H   0  0  0  0  0  0  0  0  0  0  0  0
    8.1892  -15.0828   10.0595 H   0  0  0  0  0  0  0  0  0  0  0  0
    7.7320  -13.8193   12.1431 H   0  0  0  0  0  0  0  0  0  0  0  0
   12.9498  -14.0709   11.1595 H   0  0  0  0  0  0  0  0  0  0  0  0
   14.6895  -12.8739   10.8164 C   0  0  0  0  0  0  0  0  0  0  0  0
   14.4614  -15.3712   10.3878 C   0  0  0  0  0  0  0  0  0  0  0  0
   15.3634  -15.3084    9.7664 H   0  0  0  0  0  0  0  0  0  0  0  0
   13.8189  -16.1215    9.9101 H   0  0  0  0  0  0  0  0  0  0  0  0
   14.8323  -15.8329   11.8084 C   0  0  0  0  0  0  0  0  0  0  0  0
   13.5952  -16.1681   12.6389 C   0  0  0  0  0  0  0  0  0  0  0  0
   15.3529  -14.9989   12.2909 H   0  0  0  0  0  0  0  0  0  0  0  0
   15.8195  -17.0126   11.7360 C   0  0  0  0  0  0  0  0  0  0  0  0
   16.5869  -16.8126   10.9777 H   0  0  0  0  0  0  0  0  0  0  0  0
   15.2955  -17.9169   11.4024 H   0  0  0  0  0  0  0  0  0  0  0  0
   16.4894  -17.2668   13.0991 C   0  0  0  0  0  0  0  0  0  0  0  0
   15.8195  -12.5410   10.0545 C   0  0  0  0  0  0  0  0  0  0  0  0
   14.4235  -12.1310   11.9778 C   0  0  0  0  0  0  0  0  0  0  0  0
   16.0578  -13.0925    9.1488 H   0  0  0  0  0  0  0  0  0  0  0  0
   16.6580  -11.4942   10.4426 C   0  0  0  0  0  0  0  0  0  0  0  0
   15.2621  -11.0845   12.3644 C   0  0  0  0  0  0  0  0  0  0  0  0
   13.5546  -12.3640   12.5890 H   0  0  0  0  0  0  0  0  0  0  0  0
   16.3790  -10.7661   11.5967 C   0  0  0  0  0  0  0  0  0  0  0  0
   15.0414  -10.5177   13.2645 H   0  0  0  0  0  0  0  0  0  0  0  0
   17.5289  -11.2467    9.8423 H   0  0  0  0  0  0  0  0  0  0  0  0
   17.0312   -9.9511   11.8967 H   0  0  0  0  0  0  0  0  0  0  0  0
   12.7094  -17.1917   12.2707 C   0  0  0  0  0  0  0  0  0  0  0  0
   13.3169  -15.4282   13.7994 C   0  0  0  0  0  0  0  0  0  0  0  0
   12.8898  -17.7845   11.3778 H   0  0  0  0  0  0  0  0  0  0  0  0
   11.5764  -17.4649   13.0395 C   0  0  0  0  0  0  0  0  0  0  0  0
   12.1840  -15.7022   14.5671 C   0  0  0  0  0  0  0  0  0  0  0  0
   13.9831  -14.6263   14.1095 H   0  0  0  0  0  0  0  0  0  0  0  0
   11.3136  -16.7200   14.1867 C   0  0  0  0  0  0  0  0  0  0  0  0
   11.9807  -15.1184   15.4604 H   0  0  0  0  0  0  0  0  0  0  0  0
   10.8972  -18.2582   12.7405 H   0  0  0  0  0  0  0  0  0  0  0  0
   10.4304  -16.9317   14.7823 H   0  0  0  0  0  0  0  0  0  0  0  0
   15.6867  -17.3331   13.8414 H   0  0  0  0  0  0  0  0  0  0  0  0
   17.4154  -16.1196   13.4978 C   0  0  0  0  0  0  0  0  0  0  0  0
   17.2193  -18.6242   13.0850 C   0  0  0  0  0  0  0  0  0  0  0  0
   18.1263  -18.5528   12.4717 H   0  0  0  0  0  0  0  0  0  0  0  0
   16.5891  -19.3822   12.6031 H   0  0  0  0  0  0  0  0  0  0  0  0
   17.5855  -19.0815   14.5106 C   0  0  0  0  0  0  0  0  0  0  0  0
   16.3420  -19.4051   15.3358 C   0  0  0  0  0  0  0  0  0  0  0  0
   18.1047  -18.2436   14.9878 H   0  0  0  0  0  0  0  0  0  0  0  0
   18.5716  -20.2668   14.4554 C   0  0  0  0  0  0  0  0  0  0  0  0
   19.3368  -20.0793   13.6918 H   0  0  0  0  0  0  0  0  0  0  0  0
   18.0450  -21.1752   14.1373 H   0  0  0  0  0  0  0  0  0  0  0  0
   19.2481  -20.5062   15.8214 C   0  0  0  0  0  0  0  0  0  0  0  0
   18.5350  -15.7688   12.7287 C   0  0  0  0  0  0  0  0  0  0  0  0
   17.1375  -15.3728   14.6539 C   0  0  0  0  0  0  0  0  0  0  0  0
   18.7805  -16.3213   11.8255 H   0  0  0  0  0  0  0  0  0  0  0  0
   19.3498  -14.6984   13.1027 C   0  0  0  0  0  0  0  0  0  0  0  0
   17.9526  -14.3031   15.0267 C   0  0  0  0  0  0  0  0  0  0  0  0
   16.2744  -15.6178   15.2688 H   0  0  0  0  0  0  0  0  0  0  0  0
   19.0579  -13.9654   14.2505 C   0  0  0  0  0  0  0  0  0  0  0  0
   17.7211  -13.7315   15.9210 H   0  0  0  0  0  0  0  0  0  0  0  0
   20.2106  -14.4346   12.4948 H   0  0  0  0  0  0  0  0  0  0  0  0
   19.6902  -13.1303   14.5380 H   0  0  0  0  0  0  0  0  0  0  0  0
   15.4475  -20.4192   14.9621 C   0  0  0  0  0  0  0  0  0  0  0  0
   16.0591  -18.6550   16.4885 C   0  0  0  0  0  0  0  0  0  0  0  0
   15.6306  -21.0183   14.0739 H   0  0  0  0  0  0  0  0  0  0  0  0
   14.2992  -20.6703   15.7157 C   0  0  0  0  0  0  0  0  0  0  0  0
   14.9111  -18.9069   17.2410 C   0  0  0  0  0  0  0  0  0  0  0  0
   16.7307  -17.8587   16.8012 H   0  0  0  0  0  0  0  0  0  0  0  0
   14.7023  -18.3129   18.1262 H   0  0  0  0  0  0  0  0  0  0  0  0
   14.0306  -19.9134   16.8536 C   0  0  0  0  0  0  0  0  0  0  0  0
   13.6115  -21.4538   15.4105 H   0  0  0  0  0  0  0  0  0  0  0  0
   13.1340  -20.1060   17.4358 H   0  0  0  0  0  0  0  0  0  0  0  0
   18.4445  -20.5755   16.5624 H   0  0  0  0  0  0  0  0  0  0  0  0
   20.1584  -19.3430   16.2088 C   0  0  0  0  0  0  0  0  0  0  0  0
   20.0009  -21.8551   15.8232 C   0  0  0  0  0  0  0  0  0  0  0  0
   20.9120  -21.7738   15.2174 H   0  0  0  0  0  0  0  0  0  0  0  0
   19.3854  -22.6234   15.3388 H   0  0  0  0  0  0  0  0  0  0  0  0
   20.3659  -22.3064   17.2557 C   0  0  0  0  0  0  0  0  0  0  0  0
   19.1162  -22.6261   18.0726 C   0  0  0  0  0  0  0  0  0  0  0  0
   20.8810  -21.4638   17.7292 H   0  0  0  0  0  0  0  0  0  0  0  0
   21.3549  -23.4945   17.2167 C   0  0  0  0  0  0  0  0  0  0  0  0
   22.1218  -23.3105   16.4539 H   0  0  0  0  0  0  0  0  0  0  0  0
   20.8286  -24.4036   16.8995 H   0  0  0  0  0  0  0  0  0  0  0  0
   22.0332  -23.7389   18.5878 C   0  0  0  0  0  0  0  0  0  0  0  0
   21.2658  -18.9774   15.4287 C   0  0  0  0  0  0  0  0  0  0  0  0
   19.8720  -18.5901   17.3586 C   0  0  0  0  0  0  0  0  0  0  0  0
   21.5159  -19.5333   14.5289 H   0  0  0  0  0  0  0  0  0  0  0  0
   22.0588  -17.8848   15.7845 C   0  0  0  0  0  0  0  0  0  0  0  0
   20.6654  -17.4981   17.7132 C   0  0  0  0  0  0  0  0  0  0  0  0
   19.0166  -18.8451   17.9802 H   0  0  0  0  0  0  0  0  0  0  0  0
   21.7575  -17.1446   16.9252 C   0  0  0  0  0  0  0  0  0  0  0  0
   20.4257  -16.9199   18.6011 H   0  0  0  0  0  0  0  0  0  0  0  0
   22.9081  -17.6077   15.1665 H   0  0  0  0  0  0  0  0  0  0  0  0
   22.3711  -16.2907   17.1972 H   0  0  0  0  0  0  0  0  0  0  0  0
   18.2209  -23.6370   17.6911 C   0  0  0  0  0  0  0  0  0  0  0  0
   18.8205  -21.8671   19.2158 C   0  0  0  0  0  0  0  0  0  0  0  0
   18.4128  -24.2416   16.8085 H   0  0  0  0  0  0  0  0  0  0  0  0
   17.0573  -23.8733   18.4255 C   0  0  0  0  0  0  0  0  0  0  0  0
   17.6571  -22.1044   19.9492 C   0  0  0  0  0  0  0  0  0  0  0  0
   19.4913  -21.0716   19.5327 H   0  0  0  0  0  0  0  0  0  0  0  0
   16.7745  -23.1056   19.5525 C   0  0  0  0  0  0  0  0  0  0  0  0
   17.4361  -21.5010   20.8251 H   0  0  0  0  0  0  0  0  0  0  0  0
   16.3672  -24.6516   18.1119 H   0  0  0  0  0  0  0  0  0  0  0  0
   15.8644  -23.2844   20.1180 H   0  0  0  0  0  0  0  0  0  0  0  0
   21.2256  -23.8217   19.3228 H   0  0  0  0  0  0  0  0  0  0  0  0
   22.9251  -22.5662   18.9825 C   0  0  0  0  0  0  0  0  0  0  0  0
   22.8053  -25.0795   18.5803 C   0  0  0  0  0  0  0  0  0  0  0  0
   23.7349  -24.9773   18.0060 H   0  0  0  0  0  0  0  0  0  0  0  0
   22.2101  -25.8345   18.0502 H   0  0  0  0  0  0  0  0  0  0  0  0
   23.1352  -25.6028   19.9993 C   0  0  0  0  0  0  0  0  0  0  0  0
   21.8758  -25.8857   20.8071 C   0  0  0  0  0  0  0  0  0  0  0  0
   23.7249  -24.8372   20.5198 H   0  0  0  0  0  0  0  0  0  0  0  0
   24.0204  -26.8506   19.9130 C   0  0  0  0  0  0  0  0  0  0  0  0
   24.9659  -26.6158   19.4121 H   0  0  0  0  0  0  0  0  0  0  0  0
   23.5383  -27.6575   19.3506 H   0  0  0  0  0  0  0  0  0  0  0  0
   24.2566  -27.2329   20.9122 H   0  0  0  0  0  0  0  0  0  0  0  0
   24.0139  -22.1673   18.1918 C   0  0  0  0  0  0  0  0  0  0  0  0
   22.6219  -21.8179   20.1304 C   0  0  0  0  0  0  0  0  0  0  0  0
   24.2723  -22.7154   17.2892 H   0  0  0  0  0  0  0  0  0  0  0  0
   24.7679  -21.0425   18.5314 C   0  0  0  0  0  0  0  0  0  0  0  0
   23.3765  -20.6933   20.4688 C   0  0  0  0  0  0  0  0  0  0  0  0
   21.7755  -22.0938   20.7558 H   0  0  0  0  0  0  0  0  0  0  0  0
   24.4470  -20.3040   19.6675 C   0  0  0  0  0  0  0  0  0  0  0  0
   23.1188  -20.1127   21.3503 H   0  0  0  0  0  0  0  0  0  0  0  0
   25.5971  -20.7351   17.9001 H   0  0  0  0  0  0  0  0  0  0  0  0
   25.0256  -19.4207   19.9231 H   0  0  0  0  0  0  0  0  0  0  0  0
   20.9274  -26.8318   20.3878 C   0  0  0  0  0  0  0  0  0  0  0  0
   21.6134  -25.1440   21.9691 C   0  0  0  0  0  0  0  0  0  0  0  0
   21.0928  -27.4189   19.4879 H   0  0  0  0  0  0  0  0  0  0  0  0
   19.7428  -27.0191   21.1023 C   0  0  0  0  0  0  0  0  0  0  0  0
   20.4270  -25.3306   22.6811 C   0  0  0  0  0  0  0  0  0  0  0  0
   22.3233  -24.3957   22.3146 H   0  0  0  0  0  0  0  0  0  0  0  0
   19.4910  -26.2657   22.2461 C   0  0  0  0  0  0  0  0  0  0  0  0
   20.2286  -24.7367   23.5691 H   0  0  0  0  0  0  0  0  0  0  0  0
   19.0110  -27.7446   20.7578 H   0  0  0  0  0  0  0  0  0  0  0  0
   18.5630  -26.4027   22.7940 H   0  0  0  0  0  0  0  0  0  0  0  0
  1  2  2  0  0  0  0
  1  6  1  0  0  0  0
  1  7  1  0  0  0  0
  2  3  1  0  0  0  0
  3  4  2  0  0  0  0
  4  5  1  0  0  0  0
  5  6  2  0  0  0  0
  7  8  1  0  0  0  0
  9  8  1  0  0  0  0
 10  8  1  0  0  0  0
 11  8  1  0  0  0  0
 12 10  1  0  0  0  0
 13 10  1  0  0  0  0
 14 10  1  0  0  0  0
 15 14  1  0  0  0  0
 16 14  1  0  0  0  0
 17 14  1  0  0  0  0
 18 17  1  0  0  0  0
 19 17  1  0  0  0  0
 20 17  1  0  0  0  0
 21  7  1  0  0  0  0
 22  7  1  0  0  0  0
 23 13  2  0  0  0  0
 24 13  1  0  0  0  0
 25 23  1  0  0  0  0
 26 23  1  0  0  0  0
 26 29  2  0  0  0  0
 27 24  2  0  0  0  0
 28 24  1  0  0  0  0
 29 27  1  0  0  0  0
 30 27  1  0  0  0  0
 31 26  1  0  0  0  0
 32 29  1  0  0  0  0
 33  6  1  0  0  0  0
 34  5  1  0  0  0  0
 35  4  1  0  0  0  0
 36  3  1  0  0  0  0
 37  2  1  0  0  0  0
 38 18  2  0  0  0  0
 39 18  1  0  0  0  0
 40 38  1  0  0  0  0
 41 38  1  0  0  0  0
 42 39  2  0  0  0  0
 43 39  1  0  0  0  0
 44 42  1  0  0  0  0
 44 41  2  0  0  0  0
 45 42  1  0  0  0  0
 46 41  1  0  0  0  0
 47 44  1  0  0  0  0
 48 20  1  0  0  0  0
 49 20  1  0  0  0  0
 50 20  1  0  0  0  0
 51 50  1  0  0  0  0
 52 50  1  0  0  0  0
 53 50  1  0  0  0  0
 54 53  1  0  0  0  0
 55 53  1  0  0  0  0
 56 53  1  0  0  0  0
 57 56  1  0  0  0  0
 58 56  1  0  0  0  0
 59 56  1  0  0  0  0
 60 59  1  0  0  0  0
 61 59  1  0  0  0  0
 62 59  1  0  0  0  0
 63 52  2  0  0  0  0
 64 63  1  0  0  0  0
 65 52  1  0  0  0  0
 66 63  1  0  0  0  0
 67 65  2  0  0  0  0
 68 65  1  0  0  0  0
 69 67  1  0  0  0  0
 69 64  2  0  0  0  0
 70 67  1  0  0  0  0
 71 64  1  0  0  0  0
 72 69  1  0  0  0  0
 73 57  2  0  0  0  0
 74 57  1  0  0  0  0
 75 73  1  0  0  0  0
 76 73  1  0  0  0  0
 77 74  2  0  0  0  0
 78 74  1  0  0  0  0
 79 77  1  0  0  0  0
 79 76  2  0  0  0  0
 80 77  1  0  0  0  0
 81 76  1  0  0  0  0
 82 79  1  0  0  0  0
 83 62  1  0  0  0  0
 84 62  1  0  0  0  0
 85 62  1  0  0  0  0
 86 85  1  0  0  0  0
 87 85  1  0  0  0  0
 88 85  1  0  0  0  0
 89 88  1  0  0  0  0
 90 88  1  0  0  0  0
 91 88  1  0  0  0  0
 92 91  1  0  0  0  0
 93 91  1  0  0  0  0
 94 91  1  0  0  0  0
 95 84  2  0  0  0  0
 96 84  1  0  0  0  0
 97 95  1  0  0  0  0
 98 95  1  0  0  0  0
 99 96  2  0  0  0  0
100 96  1  0  0  0  0
101 99  1  0  0  0  0
101 98  2  0  0  0  0
102 99  1  0  0  0  0
103 98  1  0  0  0  0
104101  1  0  0  0  0
105 89  2  0  0  0  0
106 89  1  0  0  0  0
107105  1  0  0  0  0
108105  1  0  0  0  0
109106  2  0  0  0  0
110106  1  0  0  0  0
111109  1  0  0  0  0
111108  2  0  0  0  0
112109  1  0  0  0  0
113108  1  0  0  0  0
114111  1  0  0  0  0
115 94  1  0  0  0  0
116115  1  0  0  0  0
117115  1  0  0  0  0
118115  1  0  0  0  0
119118  1  0  0  0  0
120118  1  0  0  0  0
121118  1  0  0  0  0
122121  1  0  0  0  0
123121  1  0  0  0  0
124121  1  0  0  0  0
125 94  1  0  0  0  0
126 94  1  0  0  0  0
127126  2  0  0  0  0
128126  1  0  0  0  0
129127  1  0  0  0  0
130127  1  0  0  0  0
131128  2  0  0  0  0
132128  1  0  0  0  0
133131  1  0  0  0  0
133130  2  0  0  0  0
134131  1  0  0  0  0
135130  1  0  0  0  0
136133  1  0  0  0  0
137119  2  0  0  0  0
138119  1  0  0  0  0
139137  1  0  0  0  0
140137  1  0  0  0  0
141138  2  0  0  0  0
142138  1  0  0  0  0
143141  1  0  0  0  0
143140  2  0  0  0  0
144141  1  0  0  0  0
145140  1  0  0  0  0
146143  1  0  0  0  0
147124  1  0  0  0  0
148124  1  0  0  0  0
149124  1  0  0  0  0
150149  1  0  0  0  0
151149  1  0  0  0  0
152149  1  0  0  0  0
153152  1  0  0  0  0
154152  1  0  0  0  0
155152  1  0  0  0  0
156155  1  0  0  0  0
157155  1  0  0  0  0
158155  1  0  0  0  0
159148  2  0  0  0  0
160148  1  0  0  0  0
161159  1  0  0  0  0
162159  1  0  0  0  0
163160  2  0  0  0  0
164160  1  0  0  0  0
165163  1  0  0  0  0
165162  2  0  0  0  0
166163  1  0  0  0  0
167162  1  0  0  0  0
168165  1  0  0  0  0
169153  2  0  0  0  0
170153  1  0  0  0  0
171169  1  0  0  0  0
172169  1  0  0  0  0
173170  2  0  0  0  0
174170  1  0  0  0  0
175173  1  0  0  0  0
175172  2  0  0  0  0
176173  1  0  0  0  0
177172  1  0  0  0  0
178175  1  0  0  0  0
179158  1  0  0  0  0
180158  1  0  0  0  0
181158  1  0  0  0  0
182181  1  0  0  0  0
183181  1  0  0  0  0
184181  1  0  0  0  0
185184  1  0  0  0  0
186184  1  0  0  0  0
187184  1  0  0  0  0
188187  1  0  0  0  0
189187  1  0  0  0  0
190187  1  0  0  0  0
191180  2  0  0  0  0
192180  1  0  0  0  0
193191  1  0  0  0  0
194191  1  0  0  0  0
195192  2  0  0  0  0
196192  1  0  0  0  0
197195  1  0  0  0  0
197194  2  0  0  0  0
198195  1  0  0  0  0
199194  1  0  0  0  0
200197  1  0  0  0  0
201185  2  0  0  0  0
202185  1  0  0  0  0
203201  1  0  0  0  0
204201  1  0  0  0  0
205202  2  0  0  0  0
206202  1  0  0  0  0
207205  1  0  0  0  0
208205  1  0  0  0  0
208204  2  0  0  0  0
209204  1  0  0  0  0
210208  1  0  0  0  0
211190  1  0  0  0  0
212190  1  0  0  0  0
213190  1  0  0  0  0
214213  1  0  0  0  0
215213  1  0  0  0  0
216213  1  0  0  0  0
217216  1  0  0  0  0
218216  1  0  0  0  0
219216  1  0  0  0  0
220219  1  0  0  0  0
221219  1  0  0  0  0
222219  1  0  0  0  0
223212  2  0  0  0  0
224212  1  0  0  0  0
225223  1  0  0  0  0
226223  1  0  0  0  0
227224  2  0  0  0  0
228224  1  0  0  0  0
229227  1  0  0  0  0
229226  2  0  0  0  0
230227  1  0  0  0  0
231226  1  0  0  0  0
232229  1  0  0  0  0
233217  2  0  0  0  0
234217  1  0  0  0  0
235233  1  0  0  0  0
236233  1  0  0  0  0
237234  2  0  0  0  0
238234  1  0  0  0  0
239237  1  0  0  0  0
239236  2  0  0  0  0
240237  1  0  0  0  0
241236  1  0  0  0  0
242239  1  0  0  0  0
243222  1  0  0  0  0
244222  1  0  0  0  0
245222  1  0  0  0  0
246245  1  0  0  0  0
247245  1  0  0  0  0
248245  1  0  0  0  0
249248  1  0  0  0  0
250248  1  0  0  0  0
251248  1  0  0  0  0
252251  1  0  0  0  0
253251  1  0  0  0  0
254251  1  0  0  0  0
255244  2  0  0  0  0
256244  1  0  0  0  0
257255  1  0  0  0  0
258255  1  0  0  0  0
259256  2  0  0  0  0
260256  1  0  0  0  0
261259  1  0  0  0  0
261258  2  0  0  0  0
262259  1  0  0  0  0
263258  1  0  0  0  0
264261  1  0  0  0  0
265249  2  0  0  0  0
266249  1  0  0  0  0
267265  1  0  0  0  0
268265  1  0  0  0  0
269266  2  0  0  0  0
270266  1  0  0  0  0
271269  1  0  0  0  0
271268  2  0  0  0  0
272269  1  0  0  0  0
273268  1  0  0  0  0
274271  1  0  0  0  0
M  END
