
 OpenBabel10311216243D

121120  0  0  0  0  0  0  0  0999 V2000
    0.7558   -0.0470   -0.0654 C   0  0  0  0  0  0  0  0  0  0  0  0
    2.1552   -0.1088    0.5314 C   0  0  0  0  0  0  0  0  0  0  0  0
    2.9082   -0.1139   -0.2643 H   0  0  0  0  0  0  0  0  0  0  0  0
    2.2979   -1.0316    1.1044 H   0  0  0  0  0  0  0  0  0  0  0  0
    2.3466    0.7462    1.1866 H   0  0  0  0  0  0  0  0  0  0  0  0
    0.6055   -1.1761   -0.9239 O   0  0  0  0  0  0  0  0  0  0  0  0
    0.6747    0.8598   -0.6752 H   0  0  0  0  0  0  0  0  0  0  0  0
   -0.3114   -0.0681    1.0359 C   0  0  0  0  0  0  0  0  0  0  0  0
   -0.1365   -0.9765   -1.5211 H   0  0  0  0  0  0  0  0  0  0  0  0
   -0.1298    0.7781    1.7106 H   0  0  0  0  0  0  0  0  0  0  0  0
   -0.2156   -0.9909    1.6217 H   0  0  0  0  0  0  0  0  0  0  0  0
   -1.7426    0.0168    0.4906 C   0  0  0  0  0  0  0  0  0  0  0  0
   -1.9288   -0.8353   -0.1723 H   0  0  0  0  0  0  0  0  0  0  0  0
   -1.8591    1.2108   -0.2832 O   0  0  0  0  0  0  0  0  0  0  0  0
   -2.7648    0.0264    1.6388 C   0  0  0  0  0  0  0  0  0  0  0  0
   -2.5783    0.8876    2.2925 H   0  0  0  0  0  0  0  0  0  0  0  0
   -2.6235   -0.8838    2.2352 H   0  0  0  0  0  0  0  0  0  0  0  0
   -4.2173    0.0918    1.1493 C   0  0  0  0  0  0  0  0  0  0  0  0
   -4.4349   -0.9917    0.2459 O   0  0  0  0  0  0  0  0  0  0  0  0
   -4.3678    1.0256    0.5966 H   0  0  0  0  0  0  0  0  0  0  0  0
   -5.2051    0.0139    2.3249 C   0  0  0  0  0  0  0  0  0  0  0  0
   -2.6877    1.1391   -0.7897 H   0  0  0  0  0  0  0  0  0  0  0  0
   -5.2832   -0.8254   -0.2019 H   0  0  0  0  0  0  0  0  0  0  0  0
   -4.9832    0.8331    3.0204 H   0  0  0  0  0  0  0  0  0  0  0  0
   -5.0670   -0.9317    2.8635 H   0  0  0  0  0  0  0  0  0  0  0  0
   -6.6681    0.1117    1.8730 C   0  0  0  0  0  0  0  0  0  0  0  0
   -6.8939   -0.7308    1.2107 H   0  0  0  0  0  0  0  0  0  0  0  0
   -6.8208    1.3146    1.1183 O   0  0  0  0  0  0  0  0  0  0  0  0
   -7.6330    0.1079    3.0695 C   0  0  0  0  0  0  0  0  0  0  0  0
   -7.4414    0.9815    3.7045 H   0  0  0  0  0  0  0  0  0  0  0  0
   -7.4463   -0.7931    3.6671 H   0  0  0  0  0  0  0  0  0  0  0  0
   -9.1023    0.1302    2.6274 C   0  0  0  0  0  0  0  0  0  0  0  0
   -9.3216   -0.9883    1.7660 O   0  0  0  0  0  0  0  0  0  0  0  0
   -9.2861    1.0407    2.0474 H   0  0  0  0  0  0  0  0  0  0  0  0
  -10.0636    0.0736    3.8248 C   0  0  0  0  0  0  0  0  0  0  0  0
   -7.6851    1.2683    0.6729 H   0  0  0  0  0  0  0  0  0  0  0  0
  -10.1822   -0.8557    1.3310 H   0  0  0  0  0  0  0  0  0  0  0  0
   -9.8226    0.8973    4.5082 H   0  0  0  0  0  0  0  0  0  0  0  0
   -9.9275   -0.8697    4.3675 H   0  0  0  0  0  0  0  0  0  0  0  0
  -11.5300    0.1879    3.3862 C   0  0  0  0  0  0  0  0  0  0  0  0
  -11.7659   -0.6421    2.7121 H   0  0  0  0  0  0  0  0  0  0  0  0
  -11.6767    1.4037    2.6498 O   0  0  0  0  0  0  0  0  0  0  0  0
  -12.4934    0.1744    4.5825 C   0  0  0  0  0  0  0  0  0  0  0  0
  -12.3059    1.0453    5.2221 H   0  0  0  0  0  0  0  0  0  0  0  0
  -12.3064   -0.7300    5.1745 H   0  0  0  0  0  0  0  0  0  0  0  0
  -13.9605    0.1943    4.1315 C   0  0  0  0  0  0  0  0  0  0  0  0
  -14.1729   -0.9267    3.2710 O   0  0  0  0  0  0  0  0  0  0  0  0
  -14.1414    1.1029    3.5477 H   0  0  0  0  0  0  0  0  0  0  0  0
  -14.9311    0.1402    5.3203 C   0  0  0  0  0  0  0  0  0  0  0  0
  -12.5399    1.3693    2.2012 H   0  0  0  0  0  0  0  0  0  0  0  0
  -15.0292   -0.7943    2.8273 H   0  0  0  0  0  0  0  0  0  0  0  0
  -14.6957    0.9649    6.0042 H   0  0  0  0  0  0  0  0  0  0  0  0
  -14.8007   -0.8025    5.8654 H   0  0  0  0  0  0  0  0  0  0  0  0
  -16.3928    0.2553    4.8665 C   0  0  0  0  0  0  0  0  0  0  0  0
  -16.6231   -0.5757    4.1916 H   0  0  0  0  0  0  0  0  0  0  0  0
  -16.5311    1.4698    4.1261 O   0  0  0  0  0  0  0  0  0  0  0  0
  -17.3674    0.2449    6.0531 C   0  0  0  0  0  0  0  0  0  0  0  0
  -17.1841    1.1162    6.6935 H   0  0  0  0  0  0  0  0  0  0  0  0
  -17.1875   -0.6591    6.6477 H   0  0  0  0  0  0  0  0  0  0  0  0
  -18.8299    0.2671    5.5883 C   0  0  0  0  0  0  0  0  0  0  0  0
  -19.0360   -0.8524    4.7246 O   0  0  0  0  0  0  0  0  0  0  0  0
  -19.0044    1.1767    5.0041 H   0  0  0  0  0  0  0  0  0  0  0  0
  -19.8103    0.2129    6.7689 C   0  0  0  0  0  0  0  0  0  0  0  0
  -17.3903    1.4356    3.6697 H   0  0  0  0  0  0  0  0  0  0  0  0
  -19.8887   -0.7188    4.2741 H   0  0  0  0  0  0  0  0  0  0  0  0
  -19.5801    1.0373    7.4549 H   0  0  0  0  0  0  0  0  0  0  0  0
  -19.6844   -0.7299    7.3149 H   0  0  0  0  0  0  0  0  0  0  0  0
  -21.2683    0.3283    6.3038 C   0  0  0  0  0  0  0  0  0  0  0  0
  -21.4938   -0.5038    5.6286 H   0  0  0  0  0  0  0  0  0  0  0  0
  -21.3998    1.5415    5.5603 O   0  0  0  0  0  0  0  0  0  0  0  0
  -22.2519    0.3207    7.4832 C   0  0  0  0  0  0  0  0  0  0  0  0
  -22.0723    1.1927    8.1236 H   0  0  0  0  0  0  0  0  0  0  0  0
  -22.0771   -0.5826    8.0805 H   0  0  0  0  0  0  0  0  0  0  0  0
  -23.7109    0.3436    7.0074 C   0  0  0  0  0  0  0  0  0  0  0  0
  -23.9118   -0.7780    6.1451 O   0  0  0  0  0  0  0  0  0  0  0  0
  -23.8795    1.2519    6.4194 H   0  0  0  0  0  0  0  0  0  0  0  0
  -24.7014    0.2942    8.1799 C   0  0  0  0  0  0  0  0  0  0  0  0
  -22.2553    1.5070    5.0968 H   0  0  0  0  0  0  0  0  0  0  0  0
  -24.7597   -0.6431    5.6862 H   0  0  0  0  0  0  0  0  0  0  0  0
  -24.4773    1.1222    8.8637 H   0  0  0  0  0  0  0  0  0  0  0  0
  -24.5790   -0.6456    8.7318 H   0  0  0  0  0  0  0  0  0  0  0  0
  -26.1562    0.4057    7.7023 C   0  0  0  0  0  0  0  0  0  0  0  0
  -26.3761   -0.4321    7.0323 H   0  0  0  0  0  0  0  0  0  0  0  0
  -26.2831    1.6126    6.9481 O   0  0  0  0  0  0  0  0  0  0  0  0
  -27.1495    0.4066    8.8733 C   0  0  0  0  0  0  0  0  0  0  0  0
  -26.9667    1.2759    9.5166 H   0  0  0  0  0  0  0  0  0  0  0  0
  -26.9859   -0.4985    9.4713 H   0  0  0  0  0  0  0  0  0  0  0  0
  -28.6066    0.4435    8.3897 C   0  0  0  0  0  0  0  0  0  0  0  0
  -28.8108   -0.6638    7.5107 O   0  0  0  0  0  0  0  0  0  0  0  0
  -28.7688    1.3616    7.8150 H   0  0  0  0  0  0  0  0  0  0  0  0
  -29.6003    0.3831    9.5585 C   0  0  0  0  0  0  0  0  0  0  0  0
  -27.1343    1.5713    6.4775 H   0  0  0  0  0  0  0  0  0  0  0  0
  -29.6568   -0.5152    7.0522 H   0  0  0  0  0  0  0  0  0  0  0  0
  -29.3881    1.2170   10.2391 H   0  0  0  0  0  0  0  0  0  0  0  0
  -29.4627   -0.5515   10.1160 H   0  0  0  0  0  0  0  0  0  0  0  0
  -31.0595    0.4667    9.0858 C   0  0  0  0  0  0  0  0  0  0  0  0
  -31.2744   -0.3897    8.4376 H   0  0  0  0  0  0  0  0  0  0  0  0
  -31.2111    1.6533    8.3064 O   0  0  0  0  0  0  0  0  0  0  0  0
  -32.0382    0.4785   10.2680 C   0  0  0  0  0  0  0  0  0  0  0  0
  -31.8321    1.3409   10.9139 H   0  0  0  0  0  0  0  0  0  0  0  0
  -31.8737   -0.4305   10.8602 H   0  0  0  0  0  0  0  0  0  0  0  0
  -33.5073    0.5393    9.8218 C   0  0  0  0  0  0  0  0  0  0  0  0
  -33.7448   -0.5244    8.9007 O   0  0  0  0  0  0  0  0  0  0  0  0
  -33.6840    1.4840    9.2957 H   0  0  0  0  0  0  0  0  0  0  0  0
  -34.4572    0.4292   11.0223 C   0  0  0  0  0  0  0  0  0  0  0  0
  -32.0704    1.5885    7.8527 H   0  0  0  0  0  0  0  0  0  0  0  0
  -34.6079   -0.3500    8.4836 H   0  0  0  0  0  0  0  0  0  0  0  0
  -34.2495    1.2672   11.6997 H   0  0  0  0  0  0  0  0  0  0  0  0
  -34.2559   -0.4993   11.5712 H   0  0  0  0  0  0  0  0  0  0  0  0
  -35.9407    0.4454   10.6258 C   0  0  0  0  0  0  0  0  0  0  0  0
  -36.1616   -0.4433   10.0235 H   0  0  0  0  0  0  0  0  0  0  0  0
  -36.1905    1.5921    9.8157 O   0  0  0  0  0  0  0  0  0  0  0  0
  -36.8403    0.4618   11.8675 C   0  0  0  0  0  0  0  0  0  0  0  0
  -36.5604    1.2908   12.5286 H   0  0  0  0  0  0  0  0  0  0  0  0
  -36.6762   -0.4701   12.4224 H   0  0  0  0  0  0  0  0  0  0  0  0
  -38.3259    0.5951   11.5506 C   0  0  0  0  0  0  0  0  0  0  0  0
  -38.7031   -0.3459   10.5559 O   0  0  0  0  0  0  0  0  0  0  0  0
  -38.5598    1.5990   11.1823 H   0  0  0  0  0  0  0  0  0  0  0  0
  -38.9184    0.4134   12.4530 H   0  0  0  0  0  0  0  0  0  0  0  0
  -37.0704    1.4588    9.4161 H   0  0  0  0  0  0  0  0  0  0  0  0
  -39.6754   -0.3300   10.5016 H   0  0  0  0  0  0  0  0  0  0  0  0
  1  2  1  0  0  0  0
  3  2  1  0  0  0  0
  4  2  1  0  0  0  0
  5  2  1  0  0  0  0
  6  1  1  0  0  0  0
  7  1  1  0  0  0  0
  8  1  1  0  0  0  0
  9  6  1  0  0  0  0
 10  8  1  0  0  0  0
 11  8  1  0  0  0  0
 12  8  1  0  0  0  0
 13 12  1  0  0  0  0
 14 12  1  0  0  0  0
 15 12  1  0  0  0  0
 16 15  1  0  0  0  0
 17 15  1  0  0  0  0
 18 15  1  0  0  0  0
 19 18  1  0  0  0  0
 20 18  1  0  0  0  0
 21 18  1  0  0  0  0
 22 14  1  0  0  0  0
 23 19  1  0  0  0  0
 24 21  1  0  0  0  0
 25 21  1  0  0  0  0
 26 21  1  0  0  0  0
 27 26  1  0  0  0  0
 28 26  1  0  0  0  0
 29 26  1  0  0  0  0
 30 29  1  0  0  0  0
 31 29  1  0  0  0  0
 32 29  1  0  0  0  0
 33 32  1  0  0  0  0
 34 32  1  0  0  0  0
 35 32  1  0  0  0  0
 36 28  1  0  0  0  0
 37 33  1  0  0  0  0
 38 35  1  0  0  0  0
 39 35  1  0  0  0  0
 40 35  1  0  0  0  0
 41 40  1  0  0  0  0
 42 40  1  0  0  0  0
 43 40  1  0  0  0  0
 44 43  1  0  0  0  0
 45 43  1  0  0  0  0
 46 43  1  0  0  0  0
 47 46  1  0  0  0  0
 48 46  1  0  0  0  0
 49 46  1  0  0  0  0
 50 42  1  0  0  0  0
 51 47  1  0  0  0  0
 52 49  1  0  0  0  0
 53 49  1  0  0  0  0
 54 49  1  0  0  0  0
 55 54  1  0  0  0  0
 56 54  1  0  0  0  0
 57 54  1  0  0  0  0
 58 57  1  0  0  0  0
 59 57  1  0  0  0  0
 60 57  1  0  0  0  0
 61 60  1  0  0  0  0
 62 60  1  0  0  0  0
 63 60  1  0  0  0  0
 64 56  1  0  0  0  0
 65 61  1  0  0  0  0
 66 63  1  0  0  0  0
 67 63  1  0  0  0  0
 68 63  1  0  0  0  0
 69 68  1  0  0  0  0
 70 68  1  0  0  0  0
 71 68  1  0  0  0  0
 72 71  1  0  0  0  0
 73 71  1  0  0  0  0
 74 71  1  0  0  0  0
 75 74  1  0  0  0  0
 76 74  1  0  0  0  0
 77 74  1  0  0  0  0
 78 70  1  0  0  0  0
 79 75  1  0  0  0  0
 80 77  1  0  0  0  0
 81 77  1  0  0  0  0
 82 77  1  0  0  0  0
 83 82  1  0  0  0  0
 84 82  1  0  0  0  0
 85 82  1  0  0  0  0
 86 85  1  0  0  0  0
 87 85  1  0  0  0  0
 88 85  1  0  0  0  0
 89 88  1  0  0  0  0
 90 88  1  0  0  0  0
 91 88  1  0  0  0  0
 92 84  1  0  0  0  0
 93 89  1  0  0  0  0
 94 91  1  0  0  0  0
 95 91  1  0  0  0  0
 96 91  1  0  0  0  0
 97 96  1  0  0  0  0
 98 96  1  0  0  0  0
 99 96  1  0  0  0  0
100 99  1  0  0  0  0
101 99  1  0  0  0  0
102 99  1  0  0  0  0
103102  1  0  0  0  0
104102  1  0  0  0  0
105102  1  0  0  0  0
106 98  1  0  0  0  0
107103  1  0  0  0  0
108105  1  0  0  0  0
109105  1  0  0  0  0
110105  1  0  0  0  0
111110  1  0  0  0  0
112110  1  0  0  0  0
113110  1  0  0  0  0
114113  1  0  0  0  0
115113  1  0  0  0  0
116113  1  0  0  0  0
117116  1  0  0  0  0
118116  1  0  0  0  0
119116  1  0  0  0  0
120112  1  0  0  0  0
121117  1  0  0  0  0
M  END
