
 OpenBabel07091213543D

119118  0  0  0  0  0  0  0  0999 V2000
    0.3106    0.9048    0.0824 C   0  0  0  0  0  0  0  0  0  0  0  0
   -0.9563    1.0358   -0.7761 C   0  0  0  0  0  0  0  0  0  0  0  0
   -1.5403    1.8789   -0.3852 H   0  0  0  0  0  0  0  0  0  0  0  0
   -0.6773    1.3016   -1.8021 H   0  0  0  0  0  0  0  0  0  0  0  0
   -1.8590   -0.1848   -0.8062 C   0  0  0  0  0  0  0  0  0  0  0  0
   -1.3885   -1.0149   -1.3412 H   0  0  0  0  0  0  0  0  0  0  0  0
   -2.1176   -0.5121    0.2055 H   0  0  0  0  0  0  0  0  0  0  0  0
   -2.7920    0.0515   -1.3286 H   0  0  0  0  0  0  0  0  0  0  0  0
    0.0307    0.7266    1.1284 H   0  0  0  0  0  0  0  0  0  0  0  0
    0.7863    1.8935    0.0648 H   0  0  0  0  0  0  0  0  0  0  0  0
    1.3259   -0.1719   -0.3907 C   0  0  0  0  0  0  0  0  0  0  0  0
    1.2418   -0.2813   -1.4783 H   0  0  0  0  0  0  0  0  0  0  0  0
    0.9995   -1.5108    0.2952 C   0  0  0  0  0  0  0  0  0  0  0  0
    2.7670    0.2956   -0.0408 C   0  0  0  0  0  0  0  0  0  0  0  0
    2.8402    1.3742   -0.2394 H   0  0  0  0  0  0  0  0  0  0  0  0
    2.9106    0.1879    1.0421 H   0  0  0  0  0  0  0  0  0  0  0  0
    3.9709   -0.3451   -0.7891 C   0  0  0  0  0  0  0  0  0  0  0  0
    1.4266   -1.5573    1.3026 H   0  0  0  0  0  0  0  0  0  0  0  0
    1.3809   -2.3618   -0.2722 H   0  0  0  0  0  0  0  0  0  0  0  0
   -0.0736   -1.6802    0.3991 H   0  0  0  0  0  0  0  0  0  0  0  0
    3.9850    0.0791   -1.8029 H   0  0  0  0  0  0  0  0  0  0  0  0
    3.8672   -1.8567   -0.9636 C   0  0  0  0  0  0  0  0  0  0  0  0
    5.2834    0.1258   -0.0846 C   0  0  0  0  0  0  0  0  0  0  0  0
    5.1937   -0.0250    0.9994 H   0  0  0  0  0  0  0  0  0  0  0  0
    5.3425    1.2129   -0.2273 H   0  0  0  0  0  0  0  0  0  0  0  0
    6.5980   -0.5367   -0.5819 C   0  0  0  0  0  0  0  0  0  0  0  0
    3.7492   -2.3655   -0.0029 H   0  0  0  0  0  0  0  0  0  0  0  0
    4.7435   -2.2751   -1.4665 H   0  0  0  0  0  0  0  0  0  0  0  0
    3.0218   -2.1109   -1.6103 H   0  0  0  0  0  0  0  0  0  0  0  0
    6.4354   -0.8438   -1.6190 H   0  0  0  0  0  0  0  0  0  0  0  0
    6.9105   -1.7642    0.2918 C   0  0  0  0  0  0  0  0  0  0  0  0
    7.7748    0.4781   -0.5486 C   0  0  0  0  0  0  0  0  0  0  0  0
    7.9869    0.7282    0.4991 H   0  0  0  0  0  0  0  0  0  0  0  0
    7.4162    1.4194   -0.9885 H   0  0  0  0  0  0  0  0  0  0  0  0
    9.1015    0.1317   -1.3032 C   0  0  0  0  0  0  0  0  0  0  0  0
    9.1879    0.9019   -2.0857 H   0  0  0  0  0  0  0  0  0  0  0  0
    9.0856   -1.1773   -2.0970 C   0  0  0  0  0  0  0  0  0  0  0  0
   10.3499    0.3804   -0.3865 C   0  0  0  0  0  0  0  0  0  0  0  0
   10.0930    0.1671    0.6591 H   0  0  0  0  0  0  0  0  0  0  0  0
   10.5491    1.4599   -0.4213 H   0  0  0  0  0  0  0  0  0  0  0  0
   11.6457   -0.3987   -0.7451 C   0  0  0  0  0  0  0  0  0  0  0  0
    6.0041   -2.2648    0.6441 H   0  0  0  0  0  0  0  0  0  0  0  0
    7.4885   -1.4882    1.1800 H   0  0  0  0  0  0  0  0  0  0  0  0
    7.4766   -2.5166   -0.2599 H   0  0  0  0  0  0  0  0  0  0  0  0
    8.2039   -1.2405   -2.7417 H   0  0  0  0  0  0  0  0  0  0  0  0
    9.1057   -2.0593   -1.4588 H   0  0  0  0  0  0  0  0  0  0  0  0
    9.9407   -1.2448   -2.7757 H   0  0  0  0  0  0  0  0  0  0  0  0
   11.6571   -0.5497   -1.8263 H   0  0  0  0  0  0  0  0  0  0  0  0
   11.6095   -1.7477   -0.0008 C   0  0  0  0  0  0  0  0  0  0  0  0
   12.9439    0.3785   -0.3724 C   0  0  0  0  0  0  0  0  0  0  0  0
   13.1202    0.2732    0.7053 H   0  0  0  0  0  0  0  0  0  0  0  0
   12.7763    1.4522   -0.5338 H   0  0  0  0  0  0  0  0  0  0  0  0
   14.2494    0.0177   -1.1627 C   0  0  0  0  0  0  0  0  0  0  0  0
   14.2497    0.6660   -2.0518 H   0  0  0  0  0  0  0  0  0  0  0  0
   14.2922   -1.4061   -1.7236 C   0  0  0  0  0  0  0  0  0  0  0  0
   15.5190    0.4293   -0.3345 C   0  0  0  0  0  0  0  0  0  0  0  0
   15.3643    0.2003    0.7274 H   0  0  0  0  0  0  0  0  0  0  0  0
   15.5908    1.5233   -0.3957 H   0  0  0  0  0  0  0  0  0  0  0  0
   16.8636   -0.2061   -0.7929 C   0  0  0  0  0  0  0  0  0  0  0  0
   10.6101   -2.1877    0.0161 H   0  0  0  0  0  0  0  0  0  0  0  0
   11.9140   -1.6284    1.0452 H   0  0  0  0  0  0  0  0  0  0  0  0
   12.2641   -2.4897   -0.4583 H   0  0  0  0  0  0  0  0  0  0  0  0
   13.4342   -1.6113   -2.3701 H   0  0  0  0  0  0  0  0  0  0  0  0
   14.3139   -2.1547   -0.9301 H   0  0  0  0  0  0  0  0  0  0  0  0
   15.1658   -1.5645   -2.3623 H   0  0  0  0  0  0  0  0  0  0  0  0
   16.8195   -0.2855   -1.8844 H   0  0  0  0  0  0  0  0  0  0  0  0
   17.0257   -1.6054   -0.1621 C   0  0  0  0  0  0  0  0  0  0  0  0
   18.1050    0.6628   -0.4468 C   0  0  0  0  0  0  0  0  0  0  0  0
   18.4252    0.4626    0.5833 H   0  0  0  0  0  0  0  0  0  0  0  0
   17.8185    1.7229   -0.4645 H   0  0  0  0  0  0  0  0  0  0  0  0
   19.3189    0.5135   -1.4173 C   0  0  0  0  0  0  0  0  0  0  0  0
   19.0242    1.0833   -2.3119 H   0  0  0  0  0  0  0  0  0  0  0  0
   19.5735   -0.9038   -1.9367 C   0  0  0  0  0  0  0  0  0  0  0  0
   20.5799    1.2520   -0.8581 C   0  0  0  0  0  0  0  0  0  0  0  0
   20.3291    1.7749    0.0742 H   0  0  0  0  0  0  0  0  0  0  0  0
   20.8009    2.0502   -1.5803 H   0  0  0  0  0  0  0  0  0  0  0  0
   21.8871    0.4384   -0.6392 C   0  0  0  0  0  0  0  0  0  0  0  0
   16.0932   -1.9917    0.2573 H   0  0  0  0  0  0  0  0  0  0  0  0
   17.7503   -1.6083    0.6592 H   0  0  0  0  0  0  0  0  0  0  0  0
   17.3678   -2.3293   -0.9075 H   0  0  0  0  0  0  0  0  0  0  0  0
   18.7203   -1.2722   -2.5145 H   0  0  0  0  0  0  0  0  0  0  0  0
   19.7611   -1.6174   -1.1317 H   0  0  0  0  0  0  0  0  0  0  0  0
   20.4207   -0.9273   -2.6285 H   0  0  0  0  0  0  0  0  0  0  0  0
   22.0738   -0.1662   -1.5316 H   0  0  0  0  0  0  0  0  0  0  0  0
   21.7434   -0.4816    0.5822 C   0  0  0  0  0  0  0  0  0  0  0  0
   23.1014    1.3980   -0.4641 C   0  0  0  0  0  0  0  0  0  0  0  0
   22.8829    2.3414   -0.9823 H   0  0  0  0  0  0  0  0  0  0  0  0
   23.2237    1.6613    0.5941 H   0  0  0  0  0  0  0  0  0  0  0  0
   24.4563    0.8893   -1.0347 C   0  0  0  0  0  0  0  0  0  0  0  0
   24.3230    0.7597   -2.1161 H   0  0  0  0  0  0  0  0  0  0  0  0
   24.8683   -0.4583   -0.4375 C   0  0  0  0  0  0  0  0  0  0  0  0
   25.5644    1.9534   -0.7924 C   0  0  0  0  0  0  0  0  0  0  0  0
   25.0843    2.9143   -0.5643 H   0  0  0  0  0  0  0  0  0  0  0  0
   26.1531    1.6940    0.0968 H   0  0  0  0  0  0  0  0  0  0  0  0
   26.5143    2.1931   -1.9990 C   0  0  0  0  0  0  0  0  0  0  0  0
   22.4607   -1.3056    0.5428 H   0  0  0  0  0  0  0  0  0  0  0  0
   21.9113    0.0627    1.5172 H   0  0  0  0  0  0  0  0  0  0  0  0
   20.7506   -0.9319    0.6518 H   0  0  0  0  0  0  0  0  0  0  0  0
   24.7916   -0.4485    0.6543 H   0  0  0  0  0  0  0  0  0  0  0  0
   25.8988   -0.7229   -0.6879 H   0  0  0  0  0  0  0  0  0  0  0  0
   24.2365   -1.2627   -0.8267 H   0  0  0  0  0  0  0  0  0  0  0  0
   25.8842    2.4668   -2.8544 H   0  0  0  0  0  0  0  0  0  0  0  0
   27.3011    0.9372   -2.3726 C   0  0  0  0  0  0  0  0  0  0  0  0
   27.4580    3.3887   -1.6880 C   0  0  0  0  0  0  0  0  0  0  0  0
   28.2634    3.0707   -1.0141 H   0  0  0  0  0  0  0  0  0  0  0  0
   26.8763    4.1328   -1.1282 H   0  0  0  0  0  0  0  0  0  0  0  0
   28.0432    4.0836   -2.9416 C   0  0  0  0  0  0  0  0  0  0  0  0
   27.3675    3.9283   -3.7907 H   0  0  0  0  0  0  0  0  0  0  0  0
   29.4319    3.5647   -3.3224 C   0  0  0  0  0  0  0  0  0  0  0  0
   28.1444    5.5971   -2.7074 C   0  0  0  0  0  0  0  0  0  0  0  0
   28.8427    5.8282   -1.8956 H   0  0  0  0  0  0  0  0  0  0  0  0
   28.4954    6.1066   -3.6115 H   0  0  0  0  0  0  0  0  0  0  0  0
   27.1686    6.0210   -2.4475 H   0  0  0  0  0  0  0  0  0  0  0  0
   26.6345    0.1084   -2.6263 H   0  0  0  0  0  0  0  0  0  0  0  0
   27.9531    0.6180   -1.5529 H   0  0  0  0  0  0  0  0  0  0  0  0
   27.9167    1.1001   -3.2589 H   0  0  0  0  0  0  0  0  0  0  0  0
   29.4519    2.4833   -3.4604 H   0  0  0  0  0  0  0  0  0  0  0  0
   29.7586    4.0167   -4.2662 H   0  0  0  0  0  0  0  0  0  0  0  0
   30.1749    3.8168   -2.5583 H   0  0  0  0  0  0  0  0  0  0  0  0
  1  2  1  0  0  0  0
  2  3  1  0  0  0  0
  2  4  1  0  0  0  0
  2  5  1  0  0  0  0
  6  5  1  0  0  0  0
  7  5  1  0  0  0  0
  8  5  1  0  0  0  0
  9  1  1  0  0  0  0
 10  1  1  0  0  0  0
 11  1  1  0  0  0  0
 12 11  1  0  0  0  0
 13 11  1  0  0  0  0
 14 11  1  0  0  0  0
 15 14  1  0  0  0  0
 16 14  1  0  0  0  0
 17 14  1  0  0  0  0
 18 13  1  0  0  0  0
 19 13  1  0  0  0  0
 20 13  1  0  0  0  0
 21 17  1  0  0  0  0
 22 17  1  0  0  0  0
 23 17  1  0  0  0  0
 24 23  1  0  0  0  0
 25 23  1  0  0  0  0
 26 23  1  0  0  0  0
 27 22  1  0  0  0  0
 28 22  1  0  0  0  0
 29 22  1  0  0  0  0
 30 26  1  0  0  0  0
 31 26  1  0  0  0  0
 32 26  1  0  0  0  0
 33 32  1  0  0  0  0
 34 32  1  0  0  0  0
 35 32  1  0  0  0  0
 36 35  1  0  0  0  0
 37 35  1  0  0  0  0
 38 35  1  0  0  0  0
 39 38  1  0  0  0  0
 40 38  1  0  0  0  0
 41 38  1  0  0  0  0
 42 31  1  0  0  0  0
 43 31  1  0  0  0  0
 44 31  1  0  0  0  0
 45 37  1  0  0  0  0
 46 37  1  0  0  0  0
 47 37  1  0  0  0  0
 48 41  1  0  0  0  0
 49 41  1  0  0  0  0
 50 41  1  0  0  0  0
 51 50  1  0  0  0  0
 52 50  1  0  0  0  0
 53 50  1  0  0  0  0
 54 53  1  0  0  0  0
 55 53  1  0  0  0  0
 56 53  1  0  0  0  0
 57 56  1  0  0  0  0
 58 56  1  0  0  0  0
 59 56  1  0  0  0  0
 60 49  1  0  0  0  0
 61 49  1  0  0  0  0
 62 49  1  0  0  0  0
 63 55  1  0  0  0  0
 64 55  1  0  0  0  0
 65 55  1  0  0  0  0
 66 59  1  0  0  0  0
 67 59  1  0  0  0  0
 68 59  1  0  0  0  0
 69 68  1  0  0  0  0
 70 68  1  0  0  0  0
 71 68  1  0  0  0  0
 72 71  1  0  0  0  0
 73 71  1  0  0  0  0
 74 71  1  0  0  0  0
 75 74  1  0  0  0  0
 76 74  1  0  0  0  0
 77 74  1  0  0  0  0
 78 67  1  0  0  0  0
 79 67  1  0  0  0  0
 80 67  1  0  0  0  0
 81 73  1  0  0  0  0
 82 73  1  0  0  0  0
 83 73  1  0  0  0  0
 84 77  1  0  0  0  0
 85 77  1  0  0  0  0
 86 77  1  0  0  0  0
 87 86  1  0  0  0  0
 88 86  1  0  0  0  0
 89 86  1  0  0  0  0
 90 89  1  0  0  0  0
 91 89  1  0  0  0  0
 92 89  1  0  0  0  0
 93 92  1  0  0  0  0
 94 92  1  0  0  0  0
 95 92  1  0  0  0  0
 96 85  1  0  0  0  0
 97 85  1  0  0  0  0
 98 85  1  0  0  0  0
 99 91  1  0  0  0  0
100 91  1  0  0  0  0
101 91  1  0  0  0  0
102 95  1  0  0  0  0
103 95  1  0  0  0  0
104 95  1  0  0  0  0
105104  1  0  0  0  0
106104  1  0  0  0  0
107104  1  0  0  0  0
108107  1  0  0  0  0
109107  1  0  0  0  0
110107  1  0  0  0  0
111110  1  0  0  0  0
112110  1  0  0  0  0
113110  1  0  0  0  0
114103  1  0  0  0  0
115103  1  0  0  0  0
116103  1  0  0  0  0
117109  1  0  0  0  0
118109  1  0  0  0  0
119109  1  0  0  0  0
M  END
