
 OpenBabel06181216483D

134133  0  0  0  0  0  0  0  0999 V2000
   -0.0071   -0.0991    0.1247 C   0  0  0  0  0  0  0  0  0  0  0  0
    1.2874    0.5323    0.7044 C   0  0  0  0  0  0  0  0  0  0  0  0
   -1.2877    0.5517    0.7131 C   0  0  0  0  0  0  0  0  0  0  0  0
   -0.0089    0.1419   -0.9379 H   0  0  0  0  0  0  0  0  0  0  0  0
   -0.0190   -1.6487    0.2211 C   0  0  0  0  0  0  0  0  0  0  0  0
   -0.0165   -2.2126    1.6346 C   0  0  0  0  0  0  0  0  0  0  0  0
    1.3928    0.2470    1.7565 H   0  0  0  0  0  0  0  0  0  0  0  0
    1.1999    1.6259    0.7018 H   0  0  0  0  0  0  0  0  0  0  0  0
    2.5589    0.1163   -0.0839 C   0  0  0  0  0  0  0  0  0  0  0  0
    2.5455    0.5973   -1.5589 C   0  0  0  0  0  0  0  0  0  0  0  0
    2.5475   -0.9745   -0.1175 H   0  0  0  0  0  0  0  0  0  0  0  0
    3.8604    0.5041    0.6656 C   0  0  0  0  0  0  0  0  0  0  0  0
    3.7705    0.2443    1.7260 H   0  0  0  0  0  0  0  0  0  0  0  0
    3.9846    1.5937    0.6381 H   0  0  0  0  0  0  0  0  0  0  0  0
    5.1228   -0.1807    0.0728 C   0  0  0  0  0  0  0  0  0  0  0  0
    2.5150    2.1076   -1.7498 C   0  0  0  0  0  0  0  0  0  0  0  0
    1.6902    0.1639   -2.0872 H   0  0  0  0  0  0  0  0  0  0  0  0
    3.4125    0.1986   -2.0945 H   0  0  0  0  0  0  0  0  0  0  0  0
    3.3885    2.5898   -1.3031 H   0  0  0  0  0  0  0  0  0  0  0  0
    1.6117    2.5508   -1.3221 H   0  0  0  0  0  0  0  0  0  0  0  0
    2.5202    2.3450   -2.8190 H   0  0  0  0  0  0  0  0  0  0  0  0
    5.1309    0.0622   -0.9901 H   0  0  0  0  0  0  0  0  0  0  0  0
    5.0790   -1.7286    0.1697 C   0  0  0  0  0  0  0  0  0  0  0  0
    6.4260    0.4174    0.6609 C   0  0  0  0  0  0  0  0  0  0  0  0
    6.5204    0.1210    1.7116 H   0  0  0  0  0  0  0  0  0  0  0  0
    6.3577    1.5124    0.6697 H   0  0  0  0  0  0  0  0  0  0  0  0
    7.7027   -0.0072   -0.1166 C   0  0  0  0  0  0  0  0  0  0  0  0
    4.2370   -2.1155   -0.4141 H   0  0  0  0  0  0  0  0  0  0  0  0
    4.9857   -2.2894    1.5818 C   0  0  0  0  0  0  0  0  0  0  0  0
    5.9582   -2.1619   -0.3177 H   0  0  0  0  0  0  0  0  0  0  0  0
    4.0636   -1.9771    2.0803 H   0  0  0  0  0  0  0  0  0  0  0  0
    5.8370   -1.9838    2.1962 H   0  0  0  0  0  0  0  0  0  0  0  0
    4.9821   -3.3838    1.5462 H   0  0  0  0  0  0  0  0  0  0  0  0
   -0.8997   -1.8978    2.1974 H   0  0  0  0  0  0  0  0  0  0  0  0
    0.8777   -1.9131    2.1881 H   0  0  0  0  0  0  0  0  0  0  0  0
   -0.0261   -3.3070    1.5962 H   0  0  0  0  0  0  0  0  0  0  0  0
    0.8359   -2.0664   -0.3203 H   0  0  0  0  0  0  0  0  0  0  0  0
   -0.8857   -2.0528   -0.3117 H   0  0  0  0  0  0  0  0  0  0  0  0
   -1.1832    1.6438    0.7108 H   0  0  0  0  0  0  0  0  0  0  0  0
   -1.3908    0.2673    1.7657 H   0  0  0  0  0  0  0  0  0  0  0  0
   -2.5709    0.1564   -0.0669 C   0  0  0  0  0  0  0  0  0  0  0  0
   -2.5796   -0.9346   -0.0990 H   0  0  0  0  0  0  0  0  0  0  0  0
   -2.5587    0.6358   -1.5425 C   0  0  0  0  0  0  0  0  0  0  0  0
   -3.8598    0.5687    0.6906 C   0  0  0  0  0  0  0  0  0  0  0  0
   -1.7160    0.1850   -2.0764 H   0  0  0  0  0  0  0  0  0  0  0  0
   -2.4994    2.1451   -1.7347 C   0  0  0  0  0  0  0  0  0  0  0  0
   -3.4374    0.2541   -2.0713 H   0  0  0  0  0  0  0  0  0  0  0  0
   -1.5832    2.5700   -1.3158 H   0  0  0  0  0  0  0  0  0  0  0  0
   -3.3586    2.6452   -1.2801 H   0  0  0  0  0  0  0  0  0  0  0  0
   -2.5097    2.3821   -2.8040 H   0  0  0  0  0  0  0  0  0  0  0  0
   -3.9618    1.6606    0.6662 H   0  0  0  0  0  0  0  0  0  0  0  0
   -3.7688    0.3049    1.7500 H   0  0  0  0  0  0  0  0  0  0  0  0
   -5.1400   -0.0884    0.1048 C   0  0  0  0  0  0  0  0  0  0  0  0
   -5.1270   -1.6369    0.1932 C   0  0  0  0  0  0  0  0  0  0  0  0
   -5.1529    0.1613   -0.9567 H   0  0  0  0  0  0  0  0  0  0  0  0
   -6.4241    0.5329    0.7088 C   0  0  0  0  0  0  0  0  0  0  0  0
   -5.0282   -2.2065    1.6016 C   0  0  0  0  0  0  0  0  0  0  0  0
   -4.2999   -2.0375   -0.4026 H   0  0  0  0  0  0  0  0  0  0  0  0
   -6.0211   -2.0489   -0.2855 H   0  0  0  0  0  0  0  0  0  0  0  0
   -5.8647   -1.8852    2.2281 H   0  0  0  0  0  0  0  0  0  0  0  0
   -4.0933   -1.9167    2.0897 H   0  0  0  0  0  0  0  0  0  0  0  0
   -5.0488   -3.3006    1.5610 H   0  0  0  0  0  0  0  0  0  0  0  0
    7.6931    0.4416   -1.6000 C   0  0  0  0  0  0  0  0  0  0  0  0
    7.7174   -1.0998   -0.1201 H   0  0  0  0  0  0  0  0  0  0  0  0
    8.9794    0.4406    0.6357 C   0  0  0  0  0  0  0  0  0  0  0  0
    8.8911    0.1723    1.6955 H   0  0  0  0  0  0  0  0  0  0  0  0
    9.0434    1.5357    0.6160 H   0  0  0  0  0  0  0  0  0  0  0  0
   10.2951   -0.1609    0.0698 C   0  0  0  0  0  0  0  0  0  0  0  0
    7.5783    1.9441   -1.8226 C   0  0  0  0  0  0  0  0  0  0  0  0
    6.8727   -0.0521   -2.1321 H   0  0  0  0  0  0  0  0  0  0  0  0
    8.5943    0.0832   -2.1074 H   0  0  0  0  0  0  0  0  0  0  0  0
    8.4023    2.4873   -1.3523 H   0  0  0  0  0  0  0  0  0  0  0  0
    6.6338    2.3382   -1.4368 H   0  0  0  0  0  0  0  0  0  0  0  0
    7.6083    2.1635   -2.8951 H   0  0  0  0  0  0  0  0  0  0  0  0
   -6.3349    1.6265    0.7147 H   0  0  0  0  0  0  0  0  0  0  0  0
   -6.5094    0.2400    1.7614 H   0  0  0  0  0  0  0  0  0  0  0  0
   -7.7208    0.1330   -0.0482 C   0  0  0  0  0  0  0  0  0  0  0  0
   -7.7692   -0.9591   -0.0351 H   0  0  0  0  0  0  0  0  0  0  0  0
   -7.7169    0.5616   -1.5374 C   0  0  0  0  0  0  0  0  0  0  0  0
   -8.9708    0.6331    0.7150 C   0  0  0  0  0  0  0  0  0  0  0  0
   -6.9149    0.0407   -2.0717 H   0  0  0  0  0  0  0  0  0  0  0  0
   -7.5679    2.0580   -1.7806 C   0  0  0  0  0  0  0  0  0  0  0  0
   -8.6324    0.2188   -2.0298 H   0  0  0  0  0  0  0  0  0  0  0  0
   -6.6122    2.4349   -1.4054 H   0  0  0  0  0  0  0  0  0  0  0  0
   -8.3761    2.6265   -1.3124 H   0  0  0  0  0  0  0  0  0  0  0  0
   -7.5998    2.2643   -2.8556 H   0  0  0  0  0  0  0  0  0  0  0  0
   -8.9900    1.7299    0.6932 H   0  0  0  0  0  0  0  0  0  0  0  0
   -8.8813    0.3643    1.7747 H   0  0  0  0  0  0  0  0  0  0  0  0
  -10.3163    0.0865    0.1671 C   0  0  0  0  0  0  0  0  0  0  0  0
  -10.4107   -1.4573    0.1852 C   0  0  0  0  0  0  0  0  0  0  0  0
  -10.3839    0.3929   -0.8807 H   0  0  0  0  0  0  0  0  0  0  0  0
  -11.4924    0.7700    0.8989 C   0  0  0  0  0  0  0  0  0  0  0  0
   10.3596    0.1450   -0.9778 H   0  0  0  0  0  0  0  0  0  0  0  0
   10.3218   -1.7080    0.0838 C   0  0  0  0  0  0  0  0  0  0  0  0
   11.5126    0.4680    0.7876 C   0  0  0  0  0  0  0  0  0  0  0  0
   11.5093    0.1662    1.8422 H   0  0  0  0  0  0  0  0  0  0  0  0
   11.3929    1.5593    0.7954 H   0  0  0  0  0  0  0  0  0  0  0  0
   12.8899    0.1270    0.1711 C   0  0  0  0  0  0  0  0  0  0  0  0
  -10.1999   -2.1057    1.5468 C   0  0  0  0  0  0  0  0  0  0  0  0
   -9.6792   -1.8763   -0.5156 H   0  0  0  0  0  0  0  0  0  0  0  0
  -11.3840   -1.7750   -0.2045 H   0  0  0  0  0  0  0  0  0  0  0  0
  -10.9262   -1.7478    2.2814 H   0  0  0  0  0  0  0  0  0  0  0  0
   -9.1930   -1.9186    1.9315 H   0  0  0  0  0  0  0  0  0  0  0  0
  -10.3188   -3.1912    1.4635 H   0  0  0  0  0  0  0  0  0  0  0  0
    9.5601   -2.0938   -0.6036 H   0  0  0  0  0  0  0  0  0  0  0  0
   10.1088   -2.3493    1.4486 C   0  0  0  0  0  0  0  0  0  0  0  0
   11.2712   -2.0687   -0.3262 H   0  0  0  0  0  0  0  0  0  0  0  0
    9.1205   -2.1153    1.8550 H   0  0  0  0  0  0  0  0  0  0  0  0
   10.8669   -2.0288    2.1683 H   0  0  0  0  0  0  0  0  0  0  0  0
   10.1740   -3.4389    1.3611 H   0  0  0  0  0  0  0  0  0  0  0  0
   13.0168    0.4482   -1.3336 C   0  0  0  0  0  0  0  0  0  0  0  0
   13.0599   -0.9513    0.2823 H   0  0  0  0  0  0  0  0  0  0  0  0
   13.9997    0.8154    0.9730 C   0  0  0  0  0  0  0  0  0  0  0  0
   13.9892    0.4737    2.0135 H   0  0  0  0  0  0  0  0  0  0  0  0
   13.8832    1.9035    0.9770 H   0  0  0  0  0  0  0  0  0  0  0  0
   14.9846    0.5781    0.5569 H   0  0  0  0  0  0  0  0  0  0  0  0
   12.7098    1.8895   -1.7196 C   0  0  0  0  0  0  0  0  0  0  0  0
   12.3599   -0.2159   -1.9077 H   0  0  0  0  0  0  0  0  0  0  0  0
   14.0355    0.2098   -1.6648 H   0  0  0  0  0  0  0  0  0  0  0  0
   13.3787    2.5920   -1.2149 H   0  0  0  0  0  0  0  0  0  0  0  0
   11.6775    2.1619   -1.4822 H   0  0  0  0  0  0  0  0  0  0  0  0
   12.8427    2.0213   -2.7986 H   0  0  0  0  0  0  0  0  0  0  0  0
  -11.3391    1.8566    0.8822 H   0  0  0  0  0  0  0  0  0  0  0  0
  -11.4866    0.4883    1.9585 H   0  0  0  0  0  0  0  0  0  0  0  0
  -12.8857    0.4747    0.3233 C   0  0  0  0  0  0  0  0  0  0  0  0
  -13.1513   -0.5699    0.5240 H   0  0  0  0  0  0  0  0  0  0  0  0
  -13.0614    0.7438   -1.1754 C   0  0  0  0  0  0  0  0  0  0  0  0
  -13.6168    1.0785    0.8756 H   0  0  0  0  0  0  0  0  0  0  0  0
  -12.4477    0.0513   -1.7625 H   0  0  0  0  0  0  0  0  0  0  0  0
  -12.7409    2.1739   -1.5831 C   0  0  0  0  0  0  0  0  0  0  0  0
  -14.1026    0.5293   -1.4449 H   0  0  0  0  0  0  0  0  0  0  0  0
  -11.6832    2.4095   -1.4329 H   0  0  0  0  0  0  0  0  0  0  0  0
  -13.3393    2.8885   -1.0099 H   0  0  0  0  0  0  0  0  0  0  0  0
  -12.9626    2.3201   -2.6453 H   0  0  0  0  0  0  0  0  0  0  0  0
  1  2  1  0  0  0  0
  1  3  1  0  0  0  0
  1  4  1  0  0  0  0
  1  5  1  0  0  0  0
  6  5  1  0  0  0  0
  7  2  1  0  0  0  0
  8  2  1  0  0  0  0
  9  2  1  0  0  0  0
 10  9  1  0  0  0  0
 11  9  1  0  0  0  0
 12  9  1  0  0  0  0
 13 12  1  0  0  0  0
 14 12  1  0  0  0  0
 15 12  1  0  0  0  0
 16 10  1  0  0  0  0
 17 10  1  0  0  0  0
 18 10  1  0  0  0  0
 19 16  1  0  0  0  0
 20 16  1  0  0  0  0
 21 16  1  0  0  0  0
 22 15  1  0  0  0  0
 23 15  1  0  0  0  0
 24 15  1  0  0  0  0
 25 24  1  0  0  0  0
 26 24  1  0  0  0  0
 27 24  1  0  0  0  0
 28 23  1  0  0  0  0
 29 23  1  0  0  0  0
 30 23  1  0  0  0  0
 31 29  1  0  0  0  0
 32 29  1  0  0  0  0
 33 29  1  0  0  0  0
 34  6  1  0  0  0  0
 35  6  1  0  0  0  0
 36  6  1  0  0  0  0
 37  5  1  0  0  0  0
 38  5  1  0  0  0  0
 39  3  1  0  0  0  0
 40  3  1  0  0  0  0
 41  3  1  0  0  0  0
 42 41  1  0  0  0  0
 43 41  1  0  0  0  0
 44 41  1  0  0  0  0
 45 43  1  0  0  0  0
 46 43  1  0  0  0  0
 47 43  1  0  0  0  0
 48 46  1  0  0  0  0
 49 46  1  0  0  0  0
 50 46  1  0  0  0  0
 51 44  1  0  0  0  0
 52 44  1  0  0  0  0
 53 44  1  0  0  0  0
 54 53  1  0  0  0  0
 55 53  1  0  0  0  0
 56 53  1  0  0  0  0
 57 54  1  0  0  0  0
 58 54  1  0  0  0  0
 59 54  1  0  0  0  0
 60 57  1  0  0  0  0
 61 57  1  0  0  0  0
 62 57  1  0  0  0  0
 63 27  1  0  0  0  0
 64 27  1  0  0  0  0
 65 27  1  0  0  0  0
 66 65  1  0  0  0  0
 67 65  1  0  0  0  0
 68 65  1  0  0  0  0
 69 63  1  0  0  0  0
 70 63  1  0  0  0  0
 71 63  1  0  0  0  0
 72 69  1  0  0  0  0
 73 69  1  0  0  0  0
 74 69  1  0  0  0  0
 75 56  1  0  0  0  0
 76 56  1  0  0  0  0
 77 56  1  0  0  0  0
 78 77  1  0  0  0  0
 79 77  1  0  0  0  0
 80 77  1  0  0  0  0
 81 79  1  0  0  0  0
 82 79  1  0  0  0  0
 83 79  1  0  0  0  0
 84 82  1  0  0  0  0
 85 82  1  0  0  0  0
 86 82  1  0  0  0  0
 87 80  1  0  0  0  0
 88 80  1  0  0  0  0
 89 80  1  0  0  0  0
 90 89  1  0  0  0  0
 91 89  1  0  0  0  0
 92 89  1  0  0  0  0
 93 68  1  0  0  0  0
 94 68  1  0  0  0  0
 95 68  1  0  0  0  0
 96 95  1  0  0  0  0
 97 95  1  0  0  0  0
 98 95  1  0  0  0  0
 99 90  1  0  0  0  0
100 90  1  0  0  0  0
101 90  1  0  0  0  0
102 99  1  0  0  0  0
103 99  1  0  0  0  0
104 99  1  0  0  0  0
105 94  1  0  0  0  0
106 94  1  0  0  0  0
107 94  1  0  0  0  0
108106  1  0  0  0  0
109106  1  0  0  0  0
110106  1  0  0  0  0
111 98  1  0  0  0  0
112 98  1  0  0  0  0
113 98  1  0  0  0  0
114113  1  0  0  0  0
115113  1  0  0  0  0
116113  1  0  0  0  0
117111  1  0  0  0  0
118111  1  0  0  0  0
119111  1  0  0  0  0
120117  1  0  0  0  0
121117  1  0  0  0  0
122117  1  0  0  0  0
123 92  1  0  0  0  0
124 92  1  0  0  0  0
125 92  1  0  0  0  0
126125  1  0  0  0  0
127125  1  0  0  0  0
128125  1  0  0  0  0
129127  1  0  0  0  0
130127  1  0  0  0  0
131127  1  0  0  0  0
132130  1  0  0  0  0
133130  1  0  0  0  0
134130  1  0  0  0  0
M  END
