
 OpenBabel06221216553D

275274  0  0  0  0  0  0  0  0999 V2000
    0.5415    0.5656    3.5591 C   0  0  0  0  0  0  0  0  0  0  0  0
    0.4707    0.2196    5.0689 C   0  0  0  0  0  0  0  0  0  0  0  0
    0.5482   -0.8693    5.1856 H   0  0  0  0  0  0  0  0  0  0  0  0
   -0.5098    0.5078    5.4681 H   0  0  0  0  0  0  0  0  0  0  0  0
    1.5865    0.8984    5.9086 C   0  0  0  0  0  0  0  0  0  0  0  0
    2.9439    0.3839    5.4437 C   0  0  0  0  0  0  0  0  0  0  0  0
    1.3490    0.7183    7.4301 C   0  0  0  0  0  0  0  0  0  0  0  0
    2.3740    1.4661    8.3210 C   0  0  0  0  0  0  0  0  0  0  0  0
    3.5458    0.8679    4.4943 O   0  0  0  0  0  0  0  0  0  0  0  0
    3.3332   -0.7324    6.1159 O   0  0  0  0  0  0  0  0  0  0  0  0
    4.5474   -1.3144    5.6186 C   0  0  0  0  0  0  0  0  0  0  0  0
    5.2678   -0.5411    5.3265 H   0  0  0  0  0  0  0  0  0  0  0  0
    4.3004   -1.9263    4.7446 H   0  0  0  0  0  0  0  0  0  0  0  0
    5.1611   -2.1777    6.7126 C   0  0  0  0  0  0  0  0  0  0  0  0
    4.4259   -2.9100    7.0679 H   0  0  0  0  0  0  0  0  0  0  0  0
    5.3949   -1.5407    7.5728 H   0  0  0  0  0  0  0  0  0  0  0  0
    6.4205   -2.8832    6.2158 C   0  0  0  0  0  0  0  0  0  0  0  0
    7.1209   -2.1503    5.7983 H   0  0  0  0  0  0  0  0  0  0  0  0
    6.1600   -3.5769    5.4081 H   0  0  0  0  0  0  0  0  0  0  0  0
    7.1133   -3.6486    7.3301 C   0  0  0  0  0  0  0  0  0  0  0  0
    6.4458   -4.3952    7.7711 H   0  0  0  0  0  0  0  0  0  0  0  0
    7.4425   -2.9684    8.1216 H   0  0  0  0  0  0  0  0  0  0  0  0
    7.9956   -4.1665    6.9412 H   0  0  0  0  0  0  0  0  0  0  0  0
    2.3100    2.9598    8.0441 C   0  0  0  0  0  0  0  0  0  0  0  0
    3.3780    1.1313    8.0404 H   0  0  0  0  0  0  0  0  0  0  0  0
    2.1647    1.1440    9.8210 C   0  0  0  0  0  0  0  0  0  0  0  0
    2.1785    0.0530    9.9469 H   0  0  0  0  0  0  0  0  0  0  0  0
    1.1653    1.4777   10.1288 H   0  0  0  0  0  0  0  0  0  0  0  0
    3.2176    1.7684   10.7726 C   0  0  0  0  0  0  0  0  0  0  0  0
    3.1436    3.5549    7.3767 O   0  0  0  0  0  0  0  0  0  0  0  0
    1.1734    3.5128    8.5485 O   0  0  0  0  0  0  0  0  0  0  0  0
    0.9581    4.8897    8.2018 C   0  0  0  0  0  0  0  0  0  0  0  0
   -0.1245    5.0273    8.1098 H   0  0  0  0  0  0  0  0  0  0  0  0
    1.3928    5.1290    7.2249 H   0  0  0  0  0  0  0  0  0  0  0  0
    1.5046    5.8021    9.2923 C   0  0  0  0  0  0  0  0  0  0  0  0
    2.5599    5.5699    9.4802 H   0  0  0  0  0  0  0  0  0  0  0  0
    0.9738    5.5895   10.2277 H   0  0  0  0  0  0  0  0  0  0  0  0
    1.3484    7.2733    8.9143 C   0  0  0  0  0  0  0  0  0  0  0  0
    0.2992    7.4903    8.6845 H   0  0  0  0  0  0  0  0  0  0  0  0
    1.9302    7.4844    8.0096 H   0  0  0  0  0  0  0  0  0  0  0  0
    1.8097    8.1994   10.0265 C   0  0  0  0  0  0  0  0  0  0  0  0
    2.8583    8.0184   10.2817 H   0  0  0  0  0  0  0  0  0  0  0  0
    1.2037    8.0578   10.9267 H   0  0  0  0  0  0  0  0  0  0  0  0
    1.7109    9.2438    9.7143 H   0  0  0  0  0  0  0  0  0  0  0  0
    3.2464    2.8530   10.6123 H   0  0  0  0  0  0  0  0  0  0  0  0
    4.5991    1.2391   10.4185 C   0  0  0  0  0  0  0  0  0  0  0  0
    2.8181    1.5288   12.2471 C   0  0  0  0  0  0  0  0  0  0  0  0
    2.6994    0.4510   12.4219 H   0  0  0  0  0  0  0  0  0  0  0  0
    1.8253    1.9699   12.4097 H   0  0  0  0  0  0  0  0  0  0  0  0
    3.7971    2.0869   13.3006 C   0  0  0  0  0  0  0  0  0  0  0  0
    5.3170    1.7851    9.5912 O   0  0  0  0  0  0  0  0  0  0  0  0
    4.8763    0.0595   11.0335 O   0  0  0  0  0  0  0  0  0  0  0  0
    6.1044   -0.5605   10.6211 C   0  0  0  0  0  0  0  0  0  0  0  0
    6.8353    0.1714   10.2588 H   0  0  0  0  0  0  0  0  0  0  0  0
    5.8667   -1.2539    9.8089 H   0  0  0  0  0  0  0  0  0  0  0  0
    6.7037   -1.3239   11.7962 C   0  0  0  0  0  0  0  0  0  0  0  0
    5.9664   -2.0317   12.1940 H   0  0  0  0  0  0  0  0  0  0  0  0
    6.9205   -0.6209   12.6099 H   0  0  0  0  0  0  0  0  0  0  0  0
    7.9739   -2.0591   11.3717 C   0  0  0  0  0  0  0  0  0  0  0  0
    8.6822   -1.3533   10.9218 H   0  0  0  0  0  0  0  0  0  0  0  0
    7.7296   -2.8031   10.6049 H   0  0  0  0  0  0  0  0  0  0  0  0
    8.6462   -2.7553   12.5421 C   0  0  0  0  0  0  0  0  0  0  0  0
    7.9755   -3.4872   13.0024 H   0  0  0  0  0  0  0  0  0  0  0  0
    8.9477   -2.0324   13.3065 H   0  0  0  0  0  0  0  0  0  0  0  0
    9.5433   -3.2824   12.2017 H   0  0  0  0  0  0  0  0  0  0  0  0
    4.0922    3.5673   13.1456 C   0  0  0  0  0  0  0  0  0  0  0  0
    4.7560    1.5646   13.1981 H   0  0  0  0  0  0  0  0  0  0  0  0
    3.2782    1.8344   14.7157 C   0  0  0  0  0  0  0  0  0  0  0  0
    3.1426    0.7630   14.8967 H   0  0  0  0  0  0  0  0  0  0  0  0
    2.3173    2.3330   14.8848 H   0  0  0  0  0  0  0  0  0  0  0  0
    3.9818    2.2174   15.4633 H   0  0  0  0  0  0  0  0  0  0  0  0
    5.2209    4.0356   13.2093 O   0  0  0  0  0  0  0  0  0  0  0  0
    2.9532    4.2871   12.9624 O   0  0  0  0  0  0  0  0  0  0  0  0
    3.1409    5.6910   12.7286 C   0  0  0  0  0  0  0  0  0  0  0  0
    2.2880    6.0199   12.1294 H   0  0  0  0  0  0  0  0  0  0  0  0
    4.0408    5.8759   12.1295 H   0  0  0  0  0  0  0  0  0  0  0  0
    3.1613    6.4657   14.0418 C   0  0  0  0  0  0  0  0  0  0  0  0
    3.9749    6.1012   14.6799 H   0  0  0  0  0  0  0  0  0  0  0  0
    2.2335    6.2665   14.5922 H   0  0  0  0  0  0  0  0  0  0  0  0
    3.3192    7.9642   13.7900 C   0  0  0  0  0  0  0  0  0  0  0  0
    2.5236    8.3166   13.1239 H   0  0  0  0  0  0  0  0  0  0  0  0
    4.2726    8.1557   13.2838 H   0  0  0  0  0  0  0  0  0  0  0  0
    3.2685    8.7636   15.0809 C   0  0  0  0  0  0  0  0  0  0  0  0
    4.0630    8.4548   15.7671 H   0  0  0  0  0  0  0  0  0  0  0  0
    2.3057    8.6319   15.5848 H   0  0  0  0  0  0  0  0  0  0  0  0
    3.3964    9.8301   14.8695 H   0  0  0  0  0  0  0  0  0  0  0  0
   -0.4858   -0.2195    2.7036 C   0  0  0  0  0  0  0  0  0  0  0  0
    1.5416    0.2966    3.2073 H   0  0  0  0  0  0  0  0  0  0  0  0
    0.3747    2.0572    3.3060 C   0  0  0  0  0  0  0  0  0  0  0  0
    1.5732    1.9751    5.7032 H   0  0  0  0  0  0  0  0  0  0  0  0
    1.3656   -0.3498    7.6821 H   0  0  0  0  0  0  0  0  0  0  0  0
    0.3387    1.0751    7.6706 H   0  0  0  0  0  0  0  0  0  0  0  0
    1.0731    2.6869    2.5245 O   0  0  0  0  0  0  0  0  0  0  0  0
   -0.6994    2.5613    3.9737 O   0  0  0  0  0  0  0  0  0  0  0  0
   -1.0080    3.9322    3.6802 C   0  0  0  0  0  0  0  0  0  0  0  0
   -2.0992    4.0256    3.6981 H   0  0  0  0  0  0  0  0  0  0  0  0
   -0.6841    4.2092    2.6720 H   0  0  0  0  0  0  0  0  0  0  0  0
   -0.3879    4.8491    4.7268 C   0  0  0  0  0  0  0  0  0  0  0  0
    0.6847    4.6397    4.8182 H   0  0  0  0  0  0  0  0  0  0  0  0
   -0.8279    4.6198    5.7044 H   0  0  0  0  0  0  0  0  0  0  0  0
   -0.6087    6.3175    4.3705 C   0  0  0  0  0  0  0  0  0  0  0  0
   -1.6758    6.5074    4.2085 H   0  0  0  0  0  0  0  0  0  0  0  0
   -0.0905    6.5480    3.4328 H   0  0  0  0  0  0  0  0  0  0  0  0
   -0.1000    7.2516    5.4532 C   0  0  0  0  0  0  0  0  0  0  0  0
    0.9689    7.1014    5.6314 H   0  0  0  0  0  0  0  0  0  0  0  0
   -0.6379    7.0871    6.3915 H   0  0  0  0  0  0  0  0  0  0  0  0
   -0.2507    8.2941    5.1558 H   0  0  0  0  0  0  0  0  0  0  0  0
   -1.4954    0.1585    2.9099 H   0  0  0  0  0  0  0  0  0  0  0  0
   -0.4814   -1.2756    3.0001 H   0  0  0  0  0  0  0  0  0  0  0  0
   -0.2014   -0.0966    1.1811 C   0  0  0  0  0  0  0  0  0  0  0  0
    1.1453   -0.6921    0.7831 C   0  0  0  0  0  0  0  0  0  0  0  0
   -0.1461    0.9729    0.9509 H   0  0  0  0  0  0  0  0  0  0  0  0
   -1.3161   -0.7241    0.3063 C   0  0  0  0  0  0  0  0  0  0  0  0
    1.8290   -0.2469   -0.1294 O   0  0  0  0  0  0  0  0  0  0  0  0
   -2.2966   -0.4030    0.6791 H   0  0  0  0  0  0  0  0  0  0  0  0
   -1.2832   -1.8166    0.4072 H   0  0  0  0  0  0  0  0  0  0  0  0
   -1.1788   -0.3514   -1.1946 C   0  0  0  0  0  0  0  0  0  0  0  0
   -0.1735   -0.6429   -1.5121 H   0  0  0  0  0  0  0  0  0  0  0  0
   -1.2881    1.1486   -1.4273 C   0  0  0  0  0  0  0  0  0  0  0  0
   -2.1913   -1.0914   -2.1035 C   0  0  0  0  0  0  0  0  0  0  0  0
   -0.5493    1.7624   -2.1841 O   0  0  0  0  0  0  0  0  0  0  0  0
   -2.3617    1.6803   -0.7818 O   0  0  0  0  0  0  0  0  0  0  0  0
   -2.6173    3.0643   -1.0639 C   0  0  0  0  0  0  0  0  0  0  0  0
   -3.7051    3.1864   -1.1011 H   0  0  0  0  0  0  0  0  0  0  0  0
   -2.2335    3.3533   -2.0472 H   0  0  0  0  0  0  0  0  0  0  0  0
   -2.0307    3.9448    0.0316 C   0  0  0  0  0  0  0  0  0  0  0  0
   -0.9673    3.7135    0.1675 H   0  0  0  0  0  0  0  0  0  0  0  0
   -2.5198    3.7028    0.9826 H   0  0  0  0  0  0  0  0  0  0  0  0
   -2.2099    5.4244   -0.3022 C   0  0  0  0  0  0  0  0  0  0  0  0
   -3.2654    5.6368   -0.5063 H   0  0  0  0  0  0  0  0  0  0  0  0
   -1.6469    5.6655   -1.2111 H   0  0  0  0  0  0  0  0  0  0  0  0
   -1.7354    6.3278    0.8211 C   0  0  0  0  0  0  0  0  0  0  0  0
   -0.6760    6.1602    1.0376 H   0  0  0  0  0  0  0  0  0  0  0  0
   -2.3125    6.1489    1.7333 H   0  0  0  0  0  0  0  0  0  0  0  0
   -1.8619    7.3788    0.5425 H   0  0  0  0  0  0  0  0  0  0  0  0
   -3.2080   -0.7539   -1.8635 H   0  0  0  0  0  0  0  0  0  0  0  0
   -2.1585   -2.1656   -1.8825 H   0  0  0  0  0  0  0  0  0  0  0  0
   -1.9321   -0.8594   -3.6185 C   0  0  0  0  0  0  0  0  0  0  0  0
   -3.0006   -1.5362   -4.5110 C   0  0  0  0  0  0  0  0  0  0  0  0
   -3.9987   -1.2445   -4.1600 H   0  0  0  0  0  0  0  0  0  0  0  0
   -2.9331   -2.6251   -4.3867 H   0  0  0  0  0  0  0  0  0  0  0  0
   -2.8602   -1.2004   -6.0221 C   0  0  0  0  0  0  0  0  0  0  0  0
   -0.5477   -1.3079   -4.0651 C   0  0  0  0  0  0  0  0  0  0  0  0
   -1.9764    0.2217   -3.7901 H   0  0  0  0  0  0  0  0  0  0  0  0
   -1.8672   -1.5299   -6.3445 H   0  0  0  0  0  0  0  0  0  0  0  0
   -2.9427    0.2946   -6.3080 C   0  0  0  0  0  0  0  0  0  0  0  0
   -3.9122   -1.9438   -6.8781 C   0  0  0  0  0  0  0  0  0  0  0  0
    0.0753   -0.7492   -4.9584 O   0  0  0  0  0  0  0  0  0  0  0  0
   -2.2938    0.8384   -7.1912 O   0  0  0  0  0  0  0  0  0  0  0  0
   -3.9005    0.9004   -5.5545 O   0  0  0  0  0  0  0  0  0  0  0  0
   -4.1383    2.2879   -5.8401 C   0  0  0  0  0  0  0  0  0  0  0  0
   -5.2165    2.4027   -5.9948 H   0  0  0  0  0  0  0  0  0  0  0  0
   -3.6421    2.6185   -6.7575 H   0  0  0  0  0  0  0  0  0  0  0  0
   -3.6835    3.1429   -4.6646 C   0  0  0  0  0  0  0  0  0  0  0  0
   -2.6258    2.9429   -4.4547 H   0  0  0  0  0  0  0  0  0  0  0  0
   -4.2359    2.8454   -3.7653 H   0  0  0  0  0  0  0  0  0  0  0  0
   -3.8943    4.6276   -4.9574 C   0  0  0  0  0  0  0  0  0  0  0  0
   -4.9456    4.8128   -5.2062 H   0  0  0  0  0  0  0  0  0  0  0  0
   -3.2981    4.9190   -5.8300 H   0  0  0  0  0  0  0  0  0  0  0  0
   -3.5026    5.5047   -3.7823 C   0  0  0  0  0  0  0  0  0  0  0  0
   -2.4453    5.3741   -3.5339 H   0  0  0  0  0  0  0  0  0  0  0  0
   -4.1026    5.2651   -2.8993 H   0  0  0  0  0  0  0  0  0  0  0  0
   -3.6642    6.5597   -4.0250 H   0  0  0  0  0  0  0  0  0  0  0  0
   -4.9065   -1.5405   -6.6437 H   0  0  0  0  0  0  0  0  0  0  0  0
   -3.9325   -3.0026   -6.5906 H   0  0  0  0  0  0  0  0  0  0  0  0
   -3.6756   -1.8239   -8.4084 C   0  0  0  0  0  0  0  0  0  0  0  0
   -2.3795   -2.4601   -8.8912 C   0  0  0  0  0  0  0  0  0  0  0  0
   -3.6035   -0.7593   -8.6493 H   0  0  0  0  0  0  0  0  0  0  0  0
   -4.8596   -2.4304   -9.2000 C   0  0  0  0  0  0  0  0  0  0  0  0
   -5.7973   -2.0084   -8.8152 H   0  0  0  0  0  0  0  0  0  0  0  0
   -4.9016   -3.5094   -8.9989 H   0  0  0  0  0  0  0  0  0  0  0  0
   -4.8013   -2.2215  -10.7391 C   0  0  0  0  0  0  0  0  0  0  0  0
   -3.8835   -2.6915  -11.1038 H   0  0  0  0  0  0  0  0  0  0  0  0
   -4.7323   -0.7600  -11.1625 C   0  0  0  0  0  0  0  0  0  0  0  0
   -6.0094   -2.9104  -11.4162 C   0  0  0  0  0  0  0  0  0  0  0  0
   -1.8050   -2.0893   -9.9076 O   0  0  0  0  0  0  0  0  0  0  0  0
   -4.2305   -0.4016  -12.2208 O   0  0  0  0  0  0  0  0  0  0  0  0
   -2.0324   -3.5551   -8.1627 O   0  0  0  0  0  0  0  0  0  0  0  0
   -5.3855    0.0598  -10.2968 O   0  0  0  0  0  0  0  0  0  0  0  0
   -0.9536   -4.3137   -8.7279 C   0  0  0  0  0  0  0  0  0  0  0  0
   -5.4143    1.4424  -10.6810 C   0  0  0  0  0  0  0  0  0  0  0  0
   -0.2238   -3.6688   -9.2314 H   0  0  0  0  0  0  0  0  0  0  0  0
   -1.3827   -5.0071   -9.4583 H   0  0  0  0  0  0  0  0  0  0  0  0
   -0.2483   -5.0928   -7.6254 C   0  0  0  0  0  0  0  0  0  0  0  0
   -0.9786   -5.6799   -7.0557 H   0  0  0  0  0  0  0  0  0  0  0  0
    0.1944   -4.3852   -6.9148 H   0  0  0  0  0  0  0  0  0  0  0  0
    0.8257   -6.0049   -8.2154 C   0  0  0  0  0  0  0  0  0  0  0  0
    1.4965   -5.4265   -8.8619 H   0  0  0  0  0  0  0  0  0  0  0  0
    0.3527   -6.7691   -8.8430 H   0  0  0  0  0  0  0  0  0  0  0  0
    1.6485   -6.6863   -7.1371 C   0  0  0  0  0  0  0  0  0  0  0  0
    1.0134   -7.2666   -6.4611 H   0  0  0  0  0  0  0  0  0  0  0  0
    2.1990   -5.9475   -6.5485 H   0  0  0  0  0  0  0  0  0  0  0  0
    2.3771   -7.3657   -7.5906 H   0  0  0  0  0  0  0  0  0  0  0  0
   -6.3319    1.6102  -11.2531 H   0  0  0  0  0  0  0  0  0  0  0  0
   -4.5508    1.7143  -11.2988 H   0  0  0  0  0  0  0  0  0  0  0  0
   -5.4184    2.3013   -9.4234 C   0  0  0  0  0  0  0  0  0  0  0  0
   -4.5124    2.0854   -8.8467 H   0  0  0  0  0  0  0  0  0  0  0  0
   -6.2624    2.0176   -8.7830 H   0  0  0  0  0  0  0  0  0  0  0  0
   -5.4856    3.7866   -9.7714 C   0  0  0  0  0  0  0  0  0  0  0  0
   -6.4065    3.9944  -10.3281 H   0  0  0  0  0  0  0  0  0  0  0  0
   -4.6459    4.0549  -10.4235 H   0  0  0  0  0  0  0  0  0  0  0  0
   -5.4459    4.6627   -8.5314 C   0  0  0  0  0  0  0  0  0  0  0  0
   -4.4981    4.5392   -8.0005 H   0  0  0  0  0  0  0  0  0  0  0  0
   -6.2630    4.4166   -7.8461 H   0  0  0  0  0  0  0  0  0  0  0  0
   -5.5387    5.7175   -8.8088 H   0  0  0  0  0  0  0  0  0  0  0  0
   -6.9270   -2.4495  -11.0253 H   0  0  0  0  0  0  0  0  0  0  0  0
   -6.0374   -3.9632  -11.1058 H   0  0  0  0  0  0  0  0  0  0  0  0
   -6.0527   -2.8354  -12.9660 C   0  0  0  0  0  0  0  0  0  0  0  0
   -4.8918   -3.5087  -13.6852 C   0  0  0  0  0  0  0  0  0  0  0  0
   -5.9932   -1.7795  -13.2384 H   0  0  0  0  0  0  0  0  0  0  0  0
   -7.4029   -3.3972  -13.4671 C   0  0  0  0  0  0  0  0  0  0  0  0
   -8.2151   -2.8557  -12.9643 H   0  0  0  0  0  0  0  0  0  0  0  0
   -7.4897   -4.4452  -13.1510 H   0  0  0  0  0  0  0  0  0  0  0  0
   -7.6629   -3.3480  -14.9805 C   0  0  0  0  0  0  0  0  0  0  0  0
   -6.9683   -4.0202  -15.4951 H   0  0  0  0  0  0  0  0  0  0  0  0
   -7.5884   -1.9982  -15.6634 C   0  0  0  0  0  0  0  0  0  0  0  0
   -8.6746   -3.7309  -15.1620 H   0  0  0  0  0  0  0  0  0  0  0  0
   -4.6360   -3.2958  -14.8652 O   0  0  0  0  0  0  0  0  0  0  0  0
   -7.5646   -1.8695  -16.8819 O   0  0  0  0  0  0  0  0  0  0  0  0
   -4.2256   -4.4010  -12.9073 O   0  0  0  0  0  0  0  0  0  0  0  0
   -7.6247   -0.9675  -14.7804 O   0  0  0  0  0  0  0  0  0  0  0  0
   -7.4245    0.3260  -15.3688 C   0  0  0  0  0  0  0  0  0  0  0  0
   -3.0937   -4.9958  -13.5604 C   0  0  0  0  0  0  0  0  0  0  0  0
   -2.4984   -4.2261  -14.0669 H   0  0  0  0  0  0  0  0  0  0  0  0
   -3.4538   -5.7232  -14.2969 H   0  0  0  0  0  0  0  0  0  0  0  0
   -2.2326   -5.6874  -12.5107 C   0  0  0  0  0  0  0  0  0  0  0  0
   -2.8330   -6.4320  -11.9739 H   0  0  0  0  0  0  0  0  0  0  0  0
   -1.9234   -4.9493  -11.7615 H   0  0  0  0  0  0  0  0  0  0  0  0
   -1.0072   -6.3439  -13.1421 C   0  0  0  0  0  0  0  0  0  0  0  0
   -0.4188   -5.5927  -13.6820 H   0  0  0  0  0  0  0  0  0  0  0  0
   -1.3241   -7.0945  -13.8755 H   0  0  0  0  0  0  0  0  0  0  0  0
   -0.1240   -7.0070  -12.0983 C   0  0  0  0  0  0  0  0  0  0  0  0
   -0.6734   -7.7788  -11.5503 H   0  0  0  0  0  0  0  0  0  0  0  0
    0.2492   -6.2715  -11.3792 H   0  0  0  0  0  0  0  0  0  0  0  0
    0.7393   -7.4794  -12.5777 H   0  0  0  0  0  0  0  0  0  0  0  0
   -8.3177    0.6006  -15.9407 H   0  0  0  0  0  0  0  0  0  0  0  0
   -6.5520    0.3074  -16.0332 H   0  0  0  0  0  0  0  0  0  0  0  0
   -7.1883    1.3209  -14.2378 C   0  0  0  0  0  0  0  0  0  0  0  0
   -6.3163    0.9989  -13.6562 H   0  0  0  0  0  0  0  0  0  0  0  0
   -8.0384    1.2936  -13.5449 H   0  0  0  0  0  0  0  0  0  0  0  0
   -6.9750    2.7384  -14.7606 C   0  0  0  0  0  0  0  0  0  0  0  0
   -7.8516    3.0581  -15.3355 H   0  0  0  0  0  0  0  0  0  0  0  0
   -6.1150    2.7598  -15.4400 H   0  0  0  0  0  0  0  0  0  0  0  0
   -6.7366    3.7222  -13.6260 C   0  0  0  0  0  0  0  0  0  0  0  0
   -5.8303    3.4650  -13.0691 H   0  0  0  0  0  0  0  0  0  0  0  0
   -7.5796    3.7296  -12.9277 H   0  0  0  0  0  0  0  0  0  0  0  0
   -6.6136    4.7353  -14.0211 H   0  0  0  0  0  0  0  0  0  0  0  0
   -0.1486   -2.4500   -3.4428 O   0  0  0  0  0  0  0  0  0  0  0  0
    1.4422   -1.8194    1.4862 O   0  0  0  0  0  0  0  0  0  0  0  0
    2.6903   -2.4081    1.0970 C   0  0  0  0  0  0  0  0  0  0  0  0
    1.1319   -2.9111   -3.8920 C   0  0  0  0  0  0  0  0  0  0  0  0
    1.5744   -4.0741   -3.0142 C   0  0  0  0  0  0  0  0  0  0  0  0
    3.4889   -1.6590    1.1602 H   0  0  0  0  0  0  0  0  0  0  0  0
    2.6091   -2.7697    0.0657 H   0  0  0  0  0  0  0  0  0  0  0  0
    3.0036   -3.5693    2.0320 C   0  0  0  0  0  0  0  0  0  0  0  0
    2.1828   -4.2965    2.0042 H   0  0  0  0  0  0  0  0  0  0  0  0
    3.0459   -3.2025    3.0643 H   0  0  0  0  0  0  0  0  0  0  0  0
    4.3207   -4.2384    1.6469 C   0  0  0  0  0  0  0  0  0  0  0  0
    5.1266   -3.4954    1.6275 H   0  0  0  0  0  0  0  0  0  0  0  0
    4.2414   -4.6529    0.6359 H   0  0  0  0  0  0  0  0  0  0  0  0
    4.6946   -5.3501    2.6118 C   0  0  0  0  0  0  0  0  0  0  0  0
    3.9178   -6.1203    2.6455 H   0  0  0  0  0  0  0  0  0  0  0  0
    4.8369   -4.9578    3.6234 H   0  0  0  0  0  0  0  0  0  0  0  0
    5.6300   -5.8237    2.2967 H   0  0  0  0  0  0  0  0  0  0  0  0
    0.8081   -4.8589   -3.0260 H   0  0  0  0  0  0  0  0  0  0  0  0
    1.6438   -3.7358   -1.9737 H   0  0  0  0  0  0  0  0  0  0  0  0
    2.9144   -4.6312   -3.4870 C   0  0  0  0  0  0  0  0  0  0  0  0
    1.8665   -2.0998   -3.8243 H   0  0  0  0  0  0  0  0  0  0  0  0
    1.0448   -3.2389   -4.9339 H   0  0  0  0  0  0  0  0  0  0  0  0
    3.4198   -5.7386   -2.5796 C   0  0  0  0  0  0  0  0  0  0  0  0
    2.6976   -6.5583   -2.5160 H   0  0  0  0  0  0  0  0  0  0  0  0
    3.6020   -5.3598   -1.5699 H   0  0  0  0  0  0  0  0  0  0  0  0
    4.3614   -6.1424   -2.9652 H   0  0  0  0  0  0  0  0  0  0  0  0
    3.6617   -3.8300   -3.5256 H   0  0  0  0  0  0  0  0  0  0  0  0
    2.8108   -5.0219   -4.5045 H   0  0  0  0  0  0  0  0  0  0  0  0
  2  1  1  0  0  0  0
  3  2  1  0  0  0  0
  4  2  1  0  0  0  0
  5  2  1  0  0  0  0
  6  5  1  0  0  0  0
  7  5  1  0  0  0  0
  8  7  1  0  0  0  0
  9  6  2  0  0  0  0
 10  6  1  0  0  0  0
 11 10  1  0  0  0  0
 12 11  1  0  0  0  0
 13 11  1  0  0  0  0
 14 11  1  0  0  0  0
 15 14  1  0  0  0  0
 16 14  1  0  0  0  0
 17 14  1  0  0  0  0
 18 17  1  0  0  0  0
 19 17  1  0  0  0  0
 20 17  1  0  0  0  0
 21 20  1  0  0  0  0
 22 20  1  0  0  0  0
 23 20  1  0  0  0  0
 24  8  1  0  0  0  0
 25  8  1  0  0  0  0
 26  8  1  0  0  0  0
 27 26  1  0  0  0  0
 28 26  1  0  0  0  0
 29 26  1  0  0  0  0
 30 24  2  0  0  0  0
 31 24  1  0  0  0  0
 32 31  1  0  0  0  0
 33 32  1  0  0  0  0
 34 32  1  0  0  0  0
 35 32  1  0  0  0  0
 36 35  1  0  0  0  0
 37 35  1  0  0  0  0
 38 35  1  0  0  0  0
 39 38  1  0  0  0  0
 40 38  1  0  0  0  0
 41 38  1  0  0  0  0
 42 41  1  0  0  0  0
 43 41  1  0  0  0  0
 44 41  1  0  0  0  0
 45 29  1  0  0  0  0
 46 29  1  0  0  0  0
 47 29  1  0  0  0  0
 48 47  1  0  0  0  0
 49 47  1  0  0  0  0
 50 47  1  0  0  0  0
 51 46  2  0  0  0  0
 52 46  1  0  0  0  0
 53 52  1  0  0  0  0
 54 53  1  0  0  0  0
 55 53  1  0  0  0  0
 56 53  1  0  0  0  0
 57 56  1  0  0  0  0
 58 56  1  0  0  0  0
 59 56  1  0  0  0  0
 60 59  1  0  0  0  0
 61 59  1  0  0  0  0
 62 59  1  0  0  0  0
 63 62  1  0  0  0  0
 64 62  1  0  0  0  0
 65 62  1  0  0  0  0
 66 50  1  0  0  0  0
 67 50  1  0  0  0  0
 68 50  1  0  0  0  0
 69 68  1  0  0  0  0
 70 68  1  0  0  0  0
 71 68  1  0  0  0  0
 72 66  2  0  0  0  0
 73 66  1  0  0  0  0
 74 73  1  0  0  0  0
 75 74  1  0  0  0  0
 76 74  1  0  0  0  0
 77 74  1  0  0  0  0
 78 77  1  0  0  0  0
 79 77  1  0  0  0  0
 80 77  1  0  0  0  0
 81 80  1  0  0  0  0
 82 80  1  0  0  0  0
 83 80  1  0  0  0  0
 84 83  1  0  0  0  0
 85 83  1  0  0  0  0
 86 83  1  0  0  0  0
 87  1  1  0  0  0  0
 88  1  1  0  0  0  0
 89  1  1  0  0  0  0
 90  5  1  0  0  0  0
 91  7  1  0  0  0  0
 92  7  1  0  0  0  0
 93 89  2  0  0  0  0
 94 89  1  0  0  0  0
 95 94  1  0  0  0  0
 96 95  1  0  0  0  0
 97 95  1  0  0  0  0
 98 95  1  0  0  0  0
 99 98  1  0  0  0  0
100 98  1  0  0  0  0
101 98  1  0  0  0  0
102101  1  0  0  0  0
103101  1  0  0  0  0
104101  1  0  0  0  0
105104  1  0  0  0  0
106104  1  0  0  0  0
107104  1  0  0  0  0
108 87  1  0  0  0  0
109 87  1  0  0  0  0
110 87  1  0  0  0  0
111110  1  0  0  0  0
112110  1  0  0  0  0
113110  1  0  0  0  0
114111  2  0  0  0  0
115113  1  0  0  0  0
116113  1  0  0  0  0
117113  1  0  0  0  0
118117  1  0  0  0  0
119117  1  0  0  0  0
120117  1  0  0  0  0
121119  2  0  0  0  0
122119  1  0  0  0  0
123122  1  0  0  0  0
124123  1  0  0  0  0
125123  1  0  0  0  0
126123  1  0  0  0  0
127126  1  0  0  0  0
128126  1  0  0  0  0
129126  1  0  0  0  0
130129  1  0  0  0  0
131129  1  0  0  0  0
132129  1  0  0  0  0
133132  1  0  0  0  0
134132  1  0  0  0  0
135132  1  0  0  0  0
136120  1  0  0  0  0
137120  1  0  0  0  0
138120  1  0  0  0  0
139138  1  0  0  0  0
140139  1  0  0  0  0
141139  1  0  0  0  0
142139  1  0  0  0  0
143138  1  0  0  0  0
144138  1  0  0  0  0
145142  1  0  0  0  0
146142  1  0  0  0  0
147142  1  0  0  0  0
148143  2  0  0  0  0
149146  2  0  0  0  0
150146  1  0  0  0  0
151150  1  0  0  0  0
152151  1  0  0  0  0
153151  1  0  0  0  0
154151  1  0  0  0  0
155154  1  0  0  0  0
156154  1  0  0  0  0
157154  1  0  0  0  0
158157  1  0  0  0  0
159157  1  0  0  0  0
160157  1  0  0  0  0
161160  1  0  0  0  0
162160  1  0  0  0  0
163160  1  0  0  0  0
164147  1  0  0  0  0
165147  1  0  0  0  0
166147  1  0  0  0  0
167166  1  0  0  0  0
168166  1  0  0  0  0
169166  1  0  0  0  0
170169  1  0  0  0  0
171169  1  0  0  0  0
172169  1  0  0  0  0
173172  1  0  0  0  0
174172  1  0  0  0  0
175172  1  0  0  0  0
176167  2  0  0  0  0
177174  2  0  0  0  0
178167  1  0  0  0  0
179174  1  0  0  0  0
180178  1  0  0  0  0
181179  1  0  0  0  0
182180  1  0  0  0  0
183180  1  0  0  0  0
184180  1  0  0  0  0
185184  1  0  0  0  0
186184  1  0  0  0  0
187184  1  0  0  0  0
188187  1  0  0  0  0
189187  1  0  0  0  0
190187  1  0  0  0  0
191190  1  0  0  0  0
192190  1  0  0  0  0
193190  1  0  0  0  0
194181  1  0  0  0  0
195181  1  0  0  0  0
196181  1  0  0  0  0
197196  1  0  0  0  0
198196  1  0  0  0  0
199196  1  0  0  0  0
200199  1  0  0  0  0
201199  1  0  0  0  0
202199  1  0  0  0  0
203202  1  0  0  0  0
204202  1  0  0  0  0
205202  1  0  0  0  0
206175  1  0  0  0  0
207175  1  0  0  0  0
208175  1  0  0  0  0
209208  1  0  0  0  0
210208  1  0  0  0  0
211208  1  0  0  0  0
212211  1  0  0  0  0
213211  1  0  0  0  0
214211  1  0  0  0  0
215214  1  0  0  0  0
216214  1  0  0  0  0
217214  1  0  0  0  0
218209  2  0  0  0  0
219216  2  0  0  0  0
220209  1  0  0  0  0
221216  1  0  0  0  0
222221  1  0  0  0  0
223220  1  0  0  0  0
224223  1  0  0  0  0
225223  1  0  0  0  0
226223  1  0  0  0  0
227226  1  0  0  0  0
228226  1  0  0  0  0
229226  1  0  0  0  0
230229  1  0  0  0  0
231229  1  0  0  0  0
232229  1  0  0  0  0
233232  1  0  0  0  0
234232  1  0  0  0  0
235232  1  0  0  0  0
236222  1  0  0  0  0
237222  1  0  0  0  0
238222  1  0  0  0  0
239238  1  0  0  0  0
240238  1  0  0  0  0
241238  1  0  0  0  0
242241  1  0  0  0  0
243241  1  0  0  0  0
244241  1  0  0  0  0
245244  1  0  0  0  0
246244  1  0  0  0  0
247244  1  0  0  0  0
248143  1  0  0  0  0
249111  1  0  0  0  0
250249  1  0  0  0  0
251248  1  0  0  0  0
252251  1  0  0  0  0
253250  1  0  0  0  0
254250  1  0  0  0  0
255250  1  0  0  0  0
256255  1  0  0  0  0
257255  1  0  0  0  0
258255  1  0  0  0  0
259258  1  0  0  0  0
260258  1  0  0  0  0
261258  1  0  0  0  0
262261  1  0  0  0  0
263261  1  0  0  0  0
264261  1  0  0  0  0
265252  1  0  0  0  0
266252  1  0  0  0  0
267252  1  0  0  0  0
268251  1  0  0  0  0
269251  1  0  0  0  0
270267  1  0  0  0  0
271270  1  0  0  0  0
272270  1  0  0  0  0
273270  1  0  0  0  0
274267  1  0  0  0  0
275267  1  0  0  0  0
M  END
