http://cactus.nci.nih.gov/chemical/structure/1,3,5,7,9,11,13,15,17,19%20decachloro%20hexacosane/file?format=sdf&get3d=True
__Jmol-12_06111216153D 1   1.00000     0.00000     0
Jmol version 12.3.28  2012-05-30 15:29 EXTRACT: ({0:79})
 80 79  0  0  0  0              1 V2000
  -6.80978   8.58821  -9.52980 Cl  0  0  0  0  0  0
  -6.29777   6.91498  -9.09513 C   0  0  0  0  0  0
  -6.17722   6.79737  -7.57445 C   0  0  0  0  0  0
  -5.74273   5.37743  -7.20555 C   0  0  0  0  0  0
  -5.50157   5.29350  -5.69703 C   0  0  0  0  0  0
  -4.94818   3.91116  -5.34517 C   0  0  0  0  0  0
  -4.59011   3.86852  -3.85829 C   0  0  0  0  0  0
  -3.92215   2.53110  -3.53266 C   0  0  0  0  0  0
  -3.45208   2.53688  -2.07673 C   0  0  0  0  0  0
  -2.67505   1.25120  -1.78656 C   0  0  0  0  0  0
  -2.09907   1.31203  -0.37046 C   0  0  0  0  0  0
  -1.21955   0.08442  -0.12440 C   0  0  0  0  0  0
  -0.54467   0.20633   1.24325 C   0  0  0  0  0  0
   0.42962  -0.95732   1.43674 C   0  0  0  0  0  0
   1.19514  -0.76892   2.74797 C   0  0  0  0  0  0
   2.25577  -1.86353   2.88120 C   0  0  0  0  0  0
   3.10288  -1.60376   4.12852 C   0  0  0  0  0  0
   4.24033  -2.62505   4.19424 C   0  0  0  0  0  0
   5.15918  -2.29003   5.37082 C   0  0  0  0  0  0
   6.36307  -3.23407   5.36268 C   0  0  0  0  0  0
   7.34311  -2.82037   6.46231 C   0  0  0  0  0  0
   8.60265  -3.68447   6.37451 C   0  0  0  0  0  0
   9.58269  -3.27077   7.47414 C   0  0  0  0  0  0
  10.84223  -4.13487   7.38635 C   0  0  0  0  0  0
  11.82226  -3.72117   8.48598 C   0  0  0  0  0  0
  13.08180  -4.58527   8.39818 C   0  0  0  0  0  0
  14.06184  -4.17157   9.49781 C   0  0  0  0  0  0
   5.80481  -4.92261   5.65933 Cl  0  0  0  0  0  0
   3.55290  -4.27653   4.41988 Cl  0  0  0  0  0  0
   1.44770  -3.46867   3.02701 Cl  0  0  0  0  0  0
  -0.48944  -2.50743   1.49476 Cl  0  0  0  0  0  0
  -2.23884  -1.40232  -0.16135 Cl  0  0  0  0  0  0
  -3.78288  -0.16460  -1.92451 Cl  0  0  0  0  0  0
  -5.10574   1.19307  -3.77681 Cl  0  0  0  0  0  0
  -6.19418   2.65708  -5.69947 Cl  0  0  0  0  0  0
  -7.03709   4.21245  -7.67296 Cl  0  0  0  0  0  0
  -7.03922   6.20258  -9.45698 H   0  0  0  0  0  0
  -5.33280   6.69956  -9.55393 H   0  0  0  0  0  0
  -5.43578   7.50966  -7.21251 H   0  0  0  0  0  0
  -7.14220   7.01280  -7.11564 H   0  0  0  0  0  0
  -4.82269   5.12992  -7.73502 H   0  0  0  0  0  0
  -4.78371   6.05842  -5.40076 H   0  0  0  0  0  0
  -6.44171   5.45364  -5.16935 H   0  0  0  0  0  0
  -4.05587   3.71484  -5.93957 H   0  0  0  0  0  0
  -3.90418   4.68324  -3.62626 H   0  0  0  0  0  0
  -5.49677   3.97632  -3.26296 H   0  0  0  0  0  0
  -3.06568   2.38307  -4.19051 H   0  0  0  0  0  0
  -2.80587   3.39805  -1.90700 H   0  0  0  0  0  0
  -4.31690   2.59574  -1.41598 H   0  0  0  0  0  0
  -1.86216   1.14784  -2.50533 H   0  0  0  0  0  0
  -1.50011   2.21604  -0.26038 H   0  0  0  0  0  0
  -2.91415   1.32581   0.35305 H   0  0  0  0  0  0
  -0.45750   0.02192  -0.90127 H   0  0  0  0  0  0
  -0.00011   1.14898   1.29696 H   0  0  0  0  0  0
  -1.30275   0.17949   2.02611 H   0  0  0  0  0  0
   1.13400  -0.98350   0.60532 H   0  0  0  0  0  0
   1.67899   0.20784   2.74909 H   0  0  0  0  0  0
   0.50107  -0.83160   3.58615 H   0  0  0  0  0  0
   2.89640  -1.85803   1.99932 H   0  0  0  0  0  0
   3.52003  -0.59794   4.08139 H   0  0  0  0  0  0
   2.47896  -1.69718   5.01735 H   0  0  0  0  0  0
   4.81147  -2.59291   3.26649 H   0  0  0  0  0  0
   5.50445  -1.26007   5.28033 H   0  0  0  0  0  0
   4.61082  -2.40853   6.30536 H   0  0  0  0  0  0
   6.86020  -3.18064   4.39405 H   0  0  0  0  0  0
   7.61207  -1.77188   6.33368 H   0  0  0  0  0  0
   6.87502  -2.95840   7.43699 H   0  0  0  0  0  0
   8.23254  -5.12728   6.55151 Cl  0  0  0  0  0  0
   9.07080  -3.54648   5.39989 H   0  0  0  0  0  0
   9.85164  -2.22228   7.34552 H   0  0  0  0  0  0
   9.11460  -3.40880   8.44883 H   0  0  0  0  0  0
  10.47212  -5.57768   7.56335 Cl  0  0  0  0  0  0
  11.31038  -3.99688   6.41173 H   0  0  0  0  0  0
  12.09122  -2.67268   8.35735 H   0  0  0  0  0  0
  11.35418  -3.85920   9.46066 H   0  0  0  0  0  0
  12.71169  -6.02808   8.57518 Cl  0  0  0  0  0  0
  13.54996  -4.44728   7.42356 H   0  0  0  0  0  0
  14.33080  -3.12308   9.36919 H   0  0  0  0  0  0
  13.59375  -4.30960  10.47250 H   0  0  0  0  0  0
  14.95916  -4.78715   9.43527 H   0  0  0  0  0  0
  1  2  1  0  0  0
  2  3  1  0  0  0
  3  4  1  0  0  0
  4  5  1  0  0  0
  5  6  1  0  0  0
  6  7  1  0  0  0
  7  8  1  0  0  0
  8  9  1  0  0  0
  9 10  1  0  0  0
 10 11  1  0  0  0
 11 12  1  0  0  0
 12 13  1  0  0  0
 13 14  1  0  0  0
 14 15  1  0  0  0
 15 16  1  0  0  0
 16 17  1  0  0  0
 17 18  1  0  0  0
 18 19  1  0  0  0
 19 20  1  0  0  0
 20 21  1  0  0  0
 21 22  1  0  0  0
 22 23  1  0  0  0
 23 24  1  0  0  0
 24 25  1  0  0  0
 25 26  1  0  0  0
 26 27  1  0  0  0
 20 28  1  0  0  0
 18 29  1  0  0  0
 16 30  1  0  0  0
 14 31  1  0  0  0
 12 32  1  0  0  0
 10 33  1  0  0  0
  8 34  1  0  0  0
  6 35  1  0  0  0
  4 36  1  0  0  0
  2 37  1  0  0  0
  2 38  1  0  0  0
  3 39  1  0  0  0
  3 40  1  0  0  0
  4 41  1  0  0  0
  5 42  1  0  0  0
  5 43  1  0  0  0
  6 44  1  0  0  0
  7 45  1  0  0  0
  7 46  1  0  0  0
  8 47  1  0  0  0
  9 48  1  0  0  0
  9 49  1  0  0  0
 10 50  1  0  0  0
 11 51  1  0  0  0
 11 52  1  0  0  0
 12 53  1  0  0  0
 13 54  1  0  0  0
 13 55  1  0  0  0
 14 56  1  0  0  0
 15 57  1  0  0  0
 15 58  1  0  0  0
 16 59  1  0  0  0
 17 60  1  0  0  0
 17 61  1  0  0  0
 18 62  1  0  0  0
 19 63  1  0  0  0
 19 64  1  0  0  0
 20 65  1  0  0  0
 21 66  1  0  0  0
 21 67  1  0  0  0
 22 68  1  0  0  0
 22 69  1  0  0  0
 23 70  1  0  0  0
 23 71  1  0  0  0
 24 72  1  0  0  0
 24 73  1  0  0  0
 25 74  1  0  0  0
 25 75  1  0  0  0
 26 76  1  0  0  0
 26 77  1  0  0  0
 27 78  1  0  0  0
 27 79  1  0  0  0
 27 80  1  0  0  0
M  END
