
 OpenBabel07161216283D

192191  0  0  0  0  0  0  0  0999 V2000
   -3.3099   -0.2227   -1.3076 C   0  0  0  0  0  0  0  0  0  0  0  0
   -2.8217   -1.7233   -0.3219 Si  0  0  0  0  0  0  0  0  0  0  0  0
   -1.1721   -1.9283   -0.3163 O   0  0  0  0  0  0  0  0  0  0  0  0
   -3.4051   -2.9161   -0.9822 H   0  0  0  0  0  0  0  0  0  0  0  0
   -3.5388   -1.6180    1.3919 C   0  0  0  0  0  0  0  0  0  0  0  0
   -2.9314   -0.2884   -2.3320 H   0  0  0  0  0  0  0  0  0  0  0  0
   -2.9051    0.6882   -0.8561 H   0  0  0  0  0  0  0  0  0  0  0  0
   -4.3983   -0.1219   -1.3548 H   0  0  0  0  0  0  0  0  0  0  0  0
   -4.6250   -1.4923    1.3519 H   0  0  0  0  0  0  0  0  0  0  0  0
   -3.1209   -0.7689    1.9410 H   0  0  0  0  0  0  0  0  0  0  0  0
   -3.3284   -2.5269    1.9633 H   0  0  0  0  0  0  0  0  0  0  0  0
    0.0410   -2.6564    0.5605 Si  0  0  0  0  0  0  0  0  0  0  0  0
    1.5904   -2.8126   -0.4869 C   0  0  0  0  0  0  0  0  0  0  0  0
   -0.4525   -4.3874    1.0973 C   0  0  0  0  0  0  0  0  0  0  0  0
    0.3269   -1.7137    1.9035 O   0  0  0  0  0  0  0  0  0  0  0  0
   -0.6777   -5.0126    0.2284 H   0  0  0  0  0  0  0  0  0  0  0  0
    0.3591   -4.8595    1.6591 H   0  0  0  0  0  0  0  0  0  0  0  0
   -1.3376   -4.3577    1.7393 H   0  0  0  0  0  0  0  0  0  0  0  0
    1.9500   -1.8285   -0.8008 H   0  0  0  0  0  0  0  0  0  0  0  0
    2.3870   -3.3069    0.0760 H   0  0  0  0  0  0  0  0  0  0  0  0
    1.3889   -3.4051   -1.3841 H   0  0  0  0  0  0  0  0  0  0  0  0
    0.8771   -0.2034    2.3371 Si  0  0  0  0  0  0  0  0  0  0  0  0
   -0.1304    0.4368    3.7894 C   0  0  0  0  0  0  0  0  0  0  0  0
    0.6928    1.0329    0.9371 C   0  0  0  0  0  0  0  0  0  0  0  0
    2.4791   -0.3372    2.7699 O   0  0  0  0  0  0  0  0  0  0  0  0
   -0.1003   -0.2733    4.6206 H   0  0  0  0  0  0  0  0  0  0  0  0
   -1.1754    0.5790    3.4986 H   0  0  0  0  0  0  0  0  0  0  0  0
    0.2638    1.3955    4.1391 H   0  0  0  0  0  0  0  0  0  0  0  0
    1.0535    2.0184    1.2465 H   0  0  0  0  0  0  0  0  0  0  0  0
   -0.3557    1.1307    0.6408 H   0  0  0  0  0  0  0  0  0  0  0  0
    1.2700    0.7190    0.0626 H   0  0  0  0  0  0  0  0  0  0  0  0
    3.5386   -1.3623    3.5395 Si  0  0  0  0  0  0  0  0  0  0  0  0
    4.7763   -2.0501    2.3025 C   0  0  0  0  0  0  0  0  0  0  0  0
    2.6620   -2.8209    4.3325 C   0  0  0  0  0  0  0  0  0  0  0  0
    4.3552   -0.4908    4.6972 O   0  0  0  0  0  0  0  0  0  0  0  0
    4.1115    0.5342    5.9827 Si  0  0  0  0  0  0  0  0  0  0  0  0
    2.5901    0.0528    6.9690 C   0  0  0  0  0  0  0  0  0  0  0  0
    3.8886    2.2969    5.3855 C   0  0  0  0  0  0  0  0  0  0  0  0
    5.4615    0.4255    6.9614 O   0  0  0  0  0  0  0  0  0  0  0  0
    6.7335   -0.6193    7.2352 Si  0  0  0  0  0  0  0  0  0  0  0  0
    5.3132   -1.2364    1.8061 H   0  0  0  0  0  0  0  0  0  0  0  0
    5.5089   -2.6871    2.8069 H   0  0  0  0  0  0  0  0  0  0  0  0
    4.2706   -2.6457    1.5381 H   0  0  0  0  0  0  0  0  0  0  0  0
    2.1851   -3.4481    3.5738 H   0  0  0  0  0  0  0  0  0  0  0  0
    1.8922   -2.4814    5.0314 H   0  0  0  0  0  0  0  0  0  0  0  0
    3.3750   -3.4400    4.8852 H   0  0  0  0  0  0  0  0  0  0  0  0
    3.0074    2.3802    4.7426 H   0  0  0  0  0  0  0  0  0  0  0  0
    4.7620    2.6222    4.8126 H   0  0  0  0  0  0  0  0  0  0  0  0
    3.7615    2.9788    6.2315 H   0  0  0  0  0  0  0  0  0  0  0  0
    2.4745    0.7072    7.8382 H   0  0  0  0  0  0  0  0  0  0  0  0
    2.6711   -0.9779    7.3264 H   0  0  0  0  0  0  0  0  0  0  0  0
    1.6869    0.1355    6.3590 H   0  0  0  0  0  0  0  0  0  0  0  0
    7.9213   -0.6003    5.7810 C   0  0  0  0  0  0  0  0  0  0  0  0
    6.1190   -2.3785    7.4655 C   0  0  0  0  0  0  0  0  0  0  0  0
    7.5258   -0.1218    8.6125 O   0  0  0  0  0  0  0  0  0  0  0  0
    7.5705    1.1447    9.6894 Si  0  0  0  0  0  0  0  0  0  0  0  0
    6.0786    1.0964   10.8253 C   0  0  0  0  0  0  0  0  0  0  0  0
    7.5725    2.7978    8.7993 C   0  0  0  0  0  0  0  0  0  0  0  0
    8.9702    0.9904   10.5825 O   0  0  0  0  0  0  0  0  0  0  0  0
   10.5241    0.4067   10.4421 Si  0  0  0  0  0  0  0  0  0  0  0  0
    8.2985    0.4119    5.6072 H   0  0  0  0  0  0  0  0  0  0  0  0
    8.7756   -1.2559    5.9734 H   0  0  0  0  0  0  0  0  0  0  0  0
    7.4248   -0.9431    4.8685 H   0  0  0  0  0  0  0  0  0  0  0  0
    5.6246   -2.7416    6.5599 H   0  0  0  0  0  0  0  0  0  0  0  0
    5.4041   -2.4303    8.2920 H   0  0  0  0  0  0  0  0  0  0  0  0
    6.9531   -3.0492    7.6918 H   0  0  0  0  0  0  0  0  0  0  0  0
    6.6504    2.9348    8.2271 H   0  0  0  0  0  0  0  0  0  0  0  0
    8.4188    2.8635    8.1091 H   0  0  0  0  0  0  0  0  0  0  0  0
    7.6527    3.6189    9.5180 H   0  0  0  0  0  0  0  0  0  0  0  0
    6.0376    0.1458   11.3652 H   0  0  0  0  0  0  0  0  0  0  0  0
    5.1522    1.2063   10.2539 H   0  0  0  0  0  0  0  0  0  0  0  0
    6.1269    1.9056   11.5599 H   0  0  0  0  0  0  0  0  0  0  0  0
   11.5336    1.4616   11.2471 O   0  0  0  0  0  0  0  0  0  0  0  0
   11.5811    3.0451   11.7601 Si  0  0  0  0  0  0  0  0  0  0  0  0
   11.0614    0.2645    8.6492 C   0  0  0  0  0  0  0  0  0  0  0  0
   10.6443   -1.2980   11.2201 C   0  0  0  0  0  0  0  0  0  0  0  0
   10.2487    3.3623   13.0450 C   0  0  0  0  0  0  0  0  0  0  0  0
   11.3106    4.2278   10.3309 C   0  0  0  0  0  0  0  0  0  0  0  0
   13.0835    3.3070   12.4349 O   0  0  0  0  0  0  0  0  0  0  0  0
   14.2917    2.4640   13.2122 Si  0  0  0  0  0  0  0  0  0  0  0  0
   10.9611    1.2254    8.1362 H   0  0  0  0  0  0  0  0  0  0  0  0
   12.1083   -0.0476    8.5880 H   0  0  0  0  0  0  0  0  0  0  0  0
   10.4563   -0.4755    8.1177 H   0  0  0  0  0  0  0  0  0  0  0  0
    9.9739   -2.0008   10.7169 H   0  0  0  0  0  0  0  0  0  0  0  0
   10.3674   -1.2564   12.2777 H   0  0  0  0  0  0  0  0  0  0  0  0
   11.6655   -1.6837   11.1484 H   0  0  0  0  0  0  0  0  0  0  0  0
   11.3843    5.2650   10.6711 H   0  0  0  0  0  0  0  0  0  0  0  0
   12.0618    4.0694    9.5516 H   0  0  0  0  0  0  0  0  0  0  0  0
   10.3214    4.0842    9.8874 H   0  0  0  0  0  0  0  0  0  0  0  0
   10.3124    4.3880   13.4196 H   0  0  0  0  0  0  0  0  0  0  0  0
   10.3628    2.6801   13.8927 H   0  0  0  0  0  0  0  0  0  0  0  0
    9.2524    3.2156   12.6180 H   0  0  0  0  0  0  0  0  0  0  0  0
   15.4888    1.7347   11.9650 C   0  0  0  0  0  0  0  0  0  0  0  0
   13.5968    1.0532   14.2401 C   0  0  0  0  0  0  0  0  0  0  0  0
   15.0918    3.5381   14.2041 O   0  0  0  0  0  0  0  0  0  0  0  0
   14.7819    4.8280   15.2111 Si  0  0  0  0  0  0  0  0  0  0  0  0
   13.0623    4.7290   15.9562 C   0  0  0  0  0  0  0  0  0  0  0  0
   14.9128    6.4393   14.2588 C   0  0  0  0  0  0  0  0  0  0  0  0
   15.9194    4.7941   16.4309 O   0  0  0  0  0  0  0  0  0  0  0  0
   17.2160    3.8747   16.9297 Si  0  0  0  0  0  0  0  0  0  0  0  0
   14.9773    1.0287   11.3041 H   0  0  0  0  0  0  0  0  0  0  0  0
   16.2993    1.2042   12.4734 H   0  0  0  0  0  0  0  0  0  0  0  0
   15.9297    2.5238   11.3487 H   0  0  0  0  0  0  0  0  0  0  0  0
   13.1044    0.3123   13.6035 H   0  0  0  0  0  0  0  0  0  0  0  0
   14.3977    0.5504   14.7902 H   0  0  0  0  0  0  0  0  0  0  0  0
   12.8659    1.4249   14.9641 H   0  0  0  0  0  0  0  0  0  0  0  0
   14.1719    6.4744   13.4546 H   0  0  0  0  0  0  0  0  0  0  0  0
   15.9069    6.5428   13.8139 H   0  0  0  0  0  0  0  0  0  0  0  0
   14.7430    7.2938   14.9204 H   0  0  0  0  0  0  0  0  0  0  0  0
   12.9306    3.7900   16.5017 H   0  0  0  0  0  0  0  0  0  0  0  0
   12.2959    4.7861   15.1784 H   0  0  0  0  0  0  0  0  0  0  0  0
   12.8998    5.5551   16.6548 H   0  0  0  0  0  0  0  0  0  0  0  0
   17.7894    4.5426   18.3428 O   0  0  0  0  0  0  0  0  0  0  0  0
   18.1013    6.0233   19.0336 Si  0  0  0  0  0  0  0  0  0  0  0  0
   16.7499    6.4722   20.2549 C   0  0  0  0  0  0  0  0  0  0  0  0
   18.1924    7.3902   17.7480 C   0  0  0  0  0  0  0  0  0  0  0  0
   19.5630    5.9010   19.8246 O   0  0  0  0  0  0  0  0  0  0  0  0
   21.0695    5.2202   19.6274 Si  0  0  0  0  0  0  0  0  0  0  0  0
   18.5693    3.8764   15.6272 C   0  0  0  0  0  0  0  0  0  0  0  0
   16.7047    2.0950   17.2326 C   0  0  0  0  0  0  0  0  0  0  0  0
   18.8908    4.8984   15.4063 H   0  0  0  0  0  0  0  0  0  0  0  0
   18.2148    3.4204   14.6982 H   0  0  0  0  0  0  0  0  0  0  0  0
   19.4385    3.3112   15.9763 H   0  0  0  0  0  0  0  0  0  0  0  0
   16.6646    5.7072   21.0323 H   0  0  0  0  0  0  0  0  0  0  0  0
   15.7836    6.5566   19.7490 H   0  0  0  0  0  0  0  0  0  0  0  0
   16.9696    7.4286   20.7385 H   0  0  0  0  0  0  0  0  0  0  0  0
   16.3730    1.6210   16.3046 H   0  0  0  0  0  0  0  0  0  0  0  0
   15.8848    2.0472   17.9551 H   0  0  0  0  0  0  0  0  0  0  0  0
   17.5447    1.5169   17.6289 H   0  0  0  0  0  0  0  0  0  0  0  0
   21.7450    5.5638   17.9083 C   0  0  0  0  0  0  0  0  0  0  0  0
   21.0012    3.3608   19.8598 C   0  0  0  0  0  0  0  0  0  0  0  0
   22.0702    5.9022   20.7737 O   0  0  0  0  0  0  0  0  0  0  0  0
   22.3800    7.3897   21.4578 Si  0  0  0  0  0  0  0  0  0  0  0  0
   22.7222    8.6746   20.1303 C   0  0  0  0  0  0  0  0  0  0  0  0
   20.9199    7.9794   22.4754 C   0  0  0  0  0  0  0  0  0  0  0  0
   22.0002    2.9243   19.7684 H   0  0  0  0  0  0  0  0  0  0  0  0
   20.6079    3.1104   20.8495 H   0  0  0  0  0  0  0  0  0  0  0  0
   20.3561    2.8976   19.1074 H   0  0  0  0  0  0  0  0  0  0  0  0
   21.1241    5.0877   17.1443 H   0  0  0  0  0  0  0  0  0  0  0  0
   22.7631    5.1749   17.8120 H   0  0  0  0  0  0  0  0  0  0  0  0
   21.7688    6.6391   17.7090 H   0  0  0  0  0  0  0  0  0  0  0  0
   21.8429    8.8222   19.4965 H   0  0  0  0  0  0  0  0  0  0  0  0
   23.5551    8.3591   19.4950 H   0  0  0  0  0  0  0  0  0  0  0  0
   22.9827    9.6350   20.5847 H   0  0  0  0  0  0  0  0  0  0  0  0
   23.7224    7.2216   22.4305 O   0  0  0  0  0  0  0  0  0  0  0  0
   17.2314    7.5121   17.2400 H   0  0  0  0  0  0  0  0  0  0  0  0
   18.9539    7.1661   16.9954 H   0  0  0  0  0  0  0  0  0  0  0  0
   18.4512    8.3420   18.2214 H   0  0  0  0  0  0  0  0  0  0  0  0
   20.6639    7.2440   23.2438 H   0  0  0  0  0  0  0  0  0  0  0  0
   20.0409    8.1339   21.8429 H   0  0  0  0  0  0  0  0  0  0  0  0
   21.1536    8.9259   22.9718 H   0  0  0  0  0  0  0  0  0  0  0  0
   25.1255    6.3297   22.5218 Si  0  0  0  0  0  0  0  0  0  0  0  0
   25.8436    6.0161   20.8157 C   0  0  0  0  0  0  0  0  0  0  0  0
   24.8022    4.6697   23.3335 C   0  0  0  0  0  0  0  0  0  0  0  0
   26.2103    7.1962   23.4408 O   0  0  0  0  0  0  0  0  0  0  0  0
   26.4439    8.7250   24.0546 Si  0  0  0  0  0  0  0  0  0  0  0  0
   25.0154    9.2313   25.1602 C   0  0  0  0  0  0  0  0  0  0  0  0
   26.5886    9.9878   22.6731 C   0  0  0  0  0  0  0  0  0  0  0  0
   27.8599    8.6945   24.9353 O   0  0  0  0  0  0  0  0  0  0  0  0
   29.0920    7.6377   25.3228 Si  0  0  0  0  0  0  0  0  0  0  0  0
   25.7301    4.0963   23.4184 H   0  0  0  0  0  0  0  0  0  0  0  0
   24.3933    4.8080   24.3388 H   0  0  0  0  0  0  0  0  0  0  0  0
   24.0874    4.0830   22.7494 H   0  0  0  0  0  0  0  0  0  0  0  0
   26.8020    5.4941   20.8929 H   0  0  0  0  0  0  0  0  0  0  0  0
   25.1671    5.3998   20.2160 H   0  0  0  0  0  0  0  0  0  0  0  0
   26.0092    6.9592   20.2867 H   0  0  0  0  0  0  0  0  0  0  0  0
   24.8740    8.5029   25.9640 H   0  0  0  0  0  0  0  0  0  0  0  0
   24.0845    9.2968   24.5893 H   0  0  0  0  0  0  0  0  0  0  0  0
   25.2068   10.2086   25.6132 H   0  0  0  0  0  0  0  0  0  0  0  0
   25.6676   10.0288   22.0842 H   0  0  0  0  0  0  0  0  0  0  0  0
   26.7776   10.9844   23.0833 H   0  0  0  0  0  0  0  0  0  0  0  0
   27.4145    9.7320   22.0029 H   0  0  0  0  0  0  0  0  0  0  0  0
   30.2485    8.5054   26.1556 O   0  0  0  0  0  0  0  0  0  0  0  0
   30.6309   10.0876   26.5008 Si  0  0  0  0  0  0  0  0  0  0  0  0
   29.3088   10.8682   27.5794 C   0  0  0  0  0  0  0  0  0  0  0  0
   30.7740   11.1018   24.9283 C   0  0  0  0  0  0  0  0  0  0  0  0
   32.0923   10.0844   27.3075 O   0  0  0  0  0  0  0  0  0  0  0  0
   32.4301   10.9468   27.5888 H   0  0  0  0  0  0  0  0  0  0  0  0
   29.8412    6.8973   23.7677 C   0  0  0  0  0  0  0  0  0  0  0  0
   28.4453    6.2335   26.3862 C   0  0  0  0  0  0  0  0  0  0  0  0
   30.1960    7.6866   23.0984 H   0  0  0  0  0  0  0  0  0  0  0  0
   29.1033    6.2962   23.2282 H   0  0  0  0  0  0  0  0  0  0  0  0
   30.6887    6.2526   24.0183 H   0  0  0  0  0  0  0  0  0  0  0  0
   27.6807    5.6617   25.8519 H   0  0  0  0  0  0  0  0  0  0  0  0
   28.0009    6.6218   27.3074 H   0  0  0  0  0  0  0  0  0  0  0  0
   29.2555    5.5504   26.6577 H   0  0  0  0  0  0  0  0  0  0  0  0
   29.1803   10.2977   28.5039 H   0  0  0  0  0  0  0  0  0  0  0  0
   28.3474   10.8946   27.0577 H   0  0  0  0  0  0  0  0  0  0  0  0
   29.5820   11.8938   27.8440 H   0  0  0  0  0  0  0  0  0  0  0  0
   29.8200   11.1264   24.3930 H   0  0  0  0  0  0  0  0  0  0  0  0
   31.5293   10.6749   24.2619 H   0  0  0  0  0  0  0  0  0  0  0  0
   31.0624   12.1315   25.1587 H   0  0  0  0  0  0  0  0  0  0  0  0
  1  2  1  0  0  0  0
  3  2  1  0  0  0  0
  4  2  1  0  0  0  0
  5  2  1  0  0  0  0
  6  1  1  0  0  0  0
  7  1  1  0  0  0  0
  8  1  1  0  0  0  0
  9  5  1  0  0  0  0
 10  5  1  0  0  0  0
 11  5  1  0  0  0  0
 12  3  1  0  0  0  0
 13 12  1  0  0  0  0
 14 12  1  0  0  0  0
 15 12  1  0  0  0  0
 16 14  1  0  0  0  0
 17 14  1  0  0  0  0
 18 14  1  0  0  0  0
 19 13  1  0  0  0  0
 20 13  1  0  0  0  0
 21 13  1  0  0  0  0
 22 15  1  0  0  0  0
 23 22  1  0  0  0  0
 24 22  1  0  0  0  0
 25 22  1  0  0  0  0
 26 23  1  0  0  0  0
 27 23  1  0  0  0  0
 28 23  1  0  0  0  0
 29 24  1  0  0  0  0
 30 24  1  0  0  0  0
 31 24  1  0  0  0  0
 32 25  1  0  0  0  0
 33 32  1  0  0  0  0
 34 32  1  0  0  0  0
 35 32  1  0  0  0  0
 36 35  1  0  0  0  0
 37 36  1  0  0  0  0
 38 36  1  0  0  0  0
 39 36  1  0  0  0  0
 40 39  1  0  0  0  0
 41 33  1  0  0  0  0
 42 33  1  0  0  0  0
 43 33  1  0  0  0  0
 44 34  1  0  0  0  0
 45 34  1  0  0  0  0
 46 34  1  0  0  0  0
 47 38  1  0  0  0  0
 48 38  1  0  0  0  0
 49 38  1  0  0  0  0
 50 37  1  0  0  0  0
 51 37  1  0  0  0  0
 52 37  1  0  0  0  0
 53 40  1  0  0  0  0
 54 40  1  0  0  0  0
 55 40  1  0  0  0  0
 56 55  1  0  0  0  0
 57 56  1  0  0  0  0
 58 56  1  0  0  0  0
 59 56  1  0  0  0  0
 60 59  1  0  0  0  0
 61 53  1  0  0  0  0
 62 53  1  0  0  0  0
 63 53  1  0  0  0  0
 64 54  1  0  0  0  0
 65 54  1  0  0  0  0
 66 54  1  0  0  0  0
 67 58  1  0  0  0  0
 68 58  1  0  0  0  0
 69 58  1  0  0  0  0
 70 57  1  0  0  0  0
 71 57  1  0  0  0  0
 72 57  1  0  0  0  0
 73 60  1  0  0  0  0
 74 73  1  0  0  0  0
 75 60  1  0  0  0  0
 76 60  1  0  0  0  0
 77 74  1  0  0  0  0
 78 74  1  0  0  0  0
 79 74  1  0  0  0  0
 80 79  1  0  0  0  0
 81 75  1  0  0  0  0
 82 75  1  0  0  0  0
 83 75  1  0  0  0  0
 84 76  1  0  0  0  0
 85 76  1  0  0  0  0
 86 76  1  0  0  0  0
 87 78  1  0  0  0  0
 88 78  1  0  0  0  0
 89 78  1  0  0  0  0
 90 77  1  0  0  0  0
 91 77  1  0  0  0  0
 92 77  1  0  0  0  0
 93 80  1  0  0  0  0
 94 80  1  0  0  0  0
 95 80  1  0  0  0  0
 96 95  1  0  0  0  0
 97 96  1  0  0  0  0
 98 96  1  0  0  0  0
 99 96  1  0  0  0  0
100 99  1  0  0  0  0
101 93  1  0  0  0  0
102 93  1  0  0  0  0
103 93  1  0  0  0  0
104 94  1  0  0  0  0
105 94  1  0  0  0  0
106 94  1  0  0  0  0
107 98  1  0  0  0  0
108 98  1  0  0  0  0
109 98  1  0  0  0  0
110 97  1  0  0  0  0
111 97  1  0  0  0  0
112 97  1  0  0  0  0
113100  1  0  0  0  0
114113  1  0  0  0  0
115114  1  0  0  0  0
116114  1  0  0  0  0
117114  1  0  0  0  0
118117  1  0  0  0  0
119100  1  0  0  0  0
120100  1  0  0  0  0
121119  1  0  0  0  0
122119  1  0  0  0  0
123119  1  0  0  0  0
124115  1  0  0  0  0
125115  1  0  0  0  0
126115  1  0  0  0  0
127120  1  0  0  0  0
128120  1  0  0  0  0
129120  1  0  0  0  0
130118  1  0  0  0  0
131118  1  0  0  0  0
132118  1  0  0  0  0
133132  1  0  0  0  0
134133  1  0  0  0  0
135133  1  0  0  0  0
136131  1  0  0  0  0
137131  1  0  0  0  0
138131  1  0  0  0  0
139130  1  0  0  0  0
140130  1  0  0  0  0
141130  1  0  0  0  0
142134  1  0  0  0  0
143134  1  0  0  0  0
144134  1  0  0  0  0
145133  1  0  0  0  0
146116  1  0  0  0  0
147116  1  0  0  0  0
148116  1  0  0  0  0
149135  1  0  0  0  0
150135  1  0  0  0  0
151135  1  0  0  0  0
152145  1  0  0  0  0
153152  1  0  0  0  0
154152  1  0  0  0  0
155152  1  0  0  0  0
156155  1  0  0  0  0
157156  1  0  0  0  0
158156  1  0  0  0  0
159156  1  0  0  0  0
160159  1  0  0  0  0
161154  1  0  0  0  0
162154  1  0  0  0  0
163154  1  0  0  0  0
164153  1  0  0  0  0
165153  1  0  0  0  0
166153  1  0  0  0  0
167157  1  0  0  0  0
168157  1  0  0  0  0
169157  1  0  0  0  0
170158  1  0  0  0  0
171158  1  0  0  0  0
172158  1  0  0  0  0
173160  1  0  0  0  0
174173  1  0  0  0  0
175174  1  0  0  0  0
176174  1  0  0  0  0
177174  1  0  0  0  0
178177  1  0  0  0  0
179160  1  0  0  0  0
180160  1  0  0  0  0
181179  1  0  0  0  0
182179  1  0  0  0  0
183179  1  0  0  0  0
184180  1  0  0  0  0
185180  1  0  0  0  0
186180  1  0  0  0  0
187175  1  0  0  0  0
188175  1  0  0  0  0
189175  1  0  0  0  0
190176  1  0  0  0  0
191176  1  0  0  0  0
192176  1  0  0  0  0
M  END
