file:/home/renata/POLY_PVC19.mol
__Jmol-12_05271316233D 1   1.00000     0.00000     0
Jmol version 12.3.28  2012-05-30 15:29 EXTRACT: ({0:121 123:139})
139138  0  0  0  0              1 V2000
 -10.08114   4.18340  -9.58217 Cl  0  0  0  0  0  0
  -9.58720   2.98446  -8.32943 C   0  0  0  0  0  0
  -8.64189   3.65242  -7.32890 C   0  0  0  0  0  0
  -8.22272   2.63499  -6.26577 C   0  0  0  0  0  0
  -7.18205   3.26571  -5.33837 C   0  0  0  0  0  0
  -6.67128   2.21203  -4.35359 C   0  0  0  0  0  0
  -5.54286   2.80761  -3.50929 C   0  0  0  0  0  0
  -4.94848   1.72002  -2.61221 C   0  0  0  0  0  0
  -3.74086   2.28285  -1.86011 C   0  0  0  0  0  0
  -3.07189   1.16383  -1.05935 C   0  0  0  0  0  0
  -1.79440   1.69671  -0.40754 C   0  0  0  0  0  0
  -1.06045   0.54919   0.28936 C   0  0  0  0  0  0
   0.27692   1.05505   0.83374 C   0  0  0  0  0  0
   1.06532  -0.11774   1.42003 C   0  0  0  0  0  0
   2.45186   0.36450   1.85107 C   0  0  0  0  0  0
   3.28401  -0.83017   2.32136 C   0  0  0  0  0  0
   4.70858  -0.36791   2.63412 C   0  0  0  0  0  0
   5.57302  -1.58092   2.98416 C   0  0  0  0  0  0
   7.02409  -1.13502   3.17510 C   0  0  0  0  0  0
   7.90912  -2.36219   3.40180 C   0  0  0  0  0  0
   9.37489  -1.92870   3.46829 C   0  0  0  0  0  0
  10.26870  -3.16629   3.56991 C   0  0  0  0  0  0
  11.73446  -2.73279   3.63639 C   0  0  0  0  0  0
  12.62827  -3.97038   3.73802 C   0  0  0  0  0  0
  14.09403  -3.53688   3.80450 C   0  0  0  0  0  0
  14.98784  -4.77446   3.90613 C   0  0  0  0  0  0
  16.45360  -4.34097   3.97262 C   0  0  0  0  0  0
   7.44699  -3.15841   4.95207 Cl  0  0  0  0  0  0
   4.96878  -2.32955   4.50907 Cl  0  0  0  0  0  0
   2.54063  -1.53313   3.80593 Cl  0  0  0  0  0  0
   0.18709  -0.77743   2.84985 Cl  0  0  0  0  0  0
  -2.06793  -0.06998   1.65037 Cl  0  0  0  0  0  0
  -4.20166   0.58208   0.21971 Cl  0  0  0  0  0  0
  -6.19233   1.17201  -1.42756 Cl  0  0  0  0  0  0
  -8.01987   1.69400  -3.27481 Cl  0  0  0  0  0  0
  -9.66567   2.14266  -5.30320 Cl  0  0  0  0  0  0
 -10.47150   2.62028  -7.80637 H   0  0  0  0  0  0
  -9.07790   2.14795  -8.80790 H   0  0  0  0  0  0
  -7.75755   4.01657  -7.85181 H   0  0  0  0  0  0
  -9.15118   4.48895  -6.85043 H   0  0  0  0  0  0
  -7.79339   1.75846  -6.75101 H   0  0  0  0  0  0
  -6.34873   3.64338  -5.93096 H   0  0  0  0  0  0
  -7.63777   4.08794  -4.78681 H   0  0  0  0  0  0
  -6.29610   1.35028  -4.90558 H   0  0  0  0  0  0
  -4.76688   3.20134  -4.16576 H   0  0  0  0  0  0
  -5.93831   3.61307  -2.89048 H   0  0  0  0  0  0
  -4.63355   0.87544  -3.22517 H   0  0  0  0  0  0
  -3.02785   2.69480  -2.57419 H   0  0  0  0  0  0
  -4.07010   3.06899  -1.18074 H   0  0  0  0  0  0
  -2.82249   0.33870  -1.72648 H   0  0  0  0  0  0
  -1.14939   2.12916  -1.17243 H   0  0  0  0  0  0
  -2.05207   2.46129   0.32530 H   0  0  0  0  0  0
  -0.88133  -0.25442  -0.42499 H   0  0  0  0  0  0
   0.84949   1.50997   0.02550 H   0  0  0  0  0  0
   0.09529   1.79614   1.61225 H   0  0  0  0  0  0
   1.17013  -0.89809   0.66625 H   0  0  0  0  0  0
   2.94850   0.84352   1.00724 H   0  0  0  0  0  0
   2.35025   1.08019   2.66697 H   0  0  0  0  0  0
   3.31135  -1.58563   1.53606 H   0  0  0  0  0  0
   5.12632   0.13663   1.76301 H   0  0  0  0  0  0
   4.68988   0.32075   3.47876 H   0  0  0  0  0  0
   5.52027  -2.31005   2.17575 H   0  0  0  0  0  0
   7.36094  -0.60351   2.28500 H   0  0  0  0  0  0
   7.09052  -0.47442   4.03956 H   0  0  0  0  0  0
   7.77484  -3.06412   2.57870 H   0  0  0  0  0  0
   9.62960  -1.36946   2.56796 H   0  0  0  0  0  0
   9.52773  -1.29728   4.34357 H   0  0  0  0  0  0
   9.91819  -3.93585   4.80884 Cl  0  0  0  0  0  0
  10.11593  -3.79773   2.69468 H   0  0  0  0  0  0
  11.98916  -2.17355   2.73607 H   0  0  0  0  0  0
  11.88731  -2.10136   4.51168 H   0  0  0  0  0  0
  12.27778  -4.73993   4.97695 Cl  0  0  0  0  0  0
  12.47551  -4.60183   2.86279 H   0  0  0  0  0  0
  14.34874  -2.97764   2.90417 H   0  0  0  0  0  0
  14.24688  -2.90546   4.67978 H   0  0  0  0  0  0
  14.63734  -5.54402   5.14505 Cl  0  0  0  0  0  0
  14.83508  -5.40591   3.03089 H   0  0  0  0  0  0
  16.70831  -3.78172   3.07228 H   0  0  0  0  0  0
  16.60645  -3.70954   4.84789 H   0  0  0  0  0  0
  17.32991  -5.55430   4.07223 C   0  0  0  0  0  0
  17.17576  -6.19152   3.18894 H   0  0  0  0  0  0
  16.97950  -6.32388   5.31117 Cl  0  0  0  0  0  0
  18.76697  -5.12927   4.13741 C   0  0  0  0  0  0
  18.92122  -4.49209   5.02071 H   0  0  0  0  0  0
  19.02404  -4.56495   3.22886 H   0  0  0  0  0  0
  19.64327  -6.34260   4.23703 C   0  0  0  0  0  0
  19.48912  -6.97981   3.35374 H   0  0  0  0  0  0
  19.29285  -7.11218   5.47597 Cl  0  0  0  0  0  0
  21.08033  -5.91757   4.30221 C   0  0  0  0  0  0
  21.23459  -5.28039   5.18551 H   0  0  0  0  0  0
  21.33741  -5.35325   3.39367 H   0  0  0  0  0  0
  21.95664  -7.13090   4.40183 C   0  0  0  0  0  0
  21.80249  -7.76812   3.51855 H   0  0  0  0  0  0
  21.60622  -7.90048   5.64076 Cl  0  0  0  0  0  0
  23.39369  -6.70588   4.46701 C   0  0  0  0  0  0
  23.54795  -6.06870   5.35031 H   0  0  0  0  0  0
  23.65078  -6.14155   3.55847 H   0  0  0  0  0  0
  24.26999  -7.91920   4.56663 C   0  0  0  0  0  0
  24.11584  -8.55643   3.68335 H   0  0  0  0  0  0
  23.91958  -8.68878   5.80557 Cl  0  0  0  0  0  0
  25.70705  -7.49418   4.63182 C   0  0  0  0  0  0
  25.86131  -6.85701   5.51511 H   0  0  0  0  0  0
  25.96413  -6.92986   3.72327 H   0  0  0  0  0  0
  26.58335  -8.70751   4.73143 C   0  0  0  0  0  0
  26.42921  -9.34472   3.84815 H   0  0  0  0  0  0
  26.23293  -9.47709   5.97037 Cl  0  0  0  0  0  0
  28.02041  -8.28249   4.79662 C   0  0  0  0  0  0
  28.17467  -7.64530   5.67992 H   0  0  0  0  0  0
  28.27750  -7.71817   3.88807 H   0  0  0  0  0  0
  28.89672  -9.49582   4.89624 C   0  0  0  0  0  0
  28.74256 -10.13304   4.01296 H   0  0  0  0  0  0
  28.54630 -10.26540   6.13517 Cl  0  0  0  0  0  0
  30.33377  -9.07080   4.96142 C   0  0  0  0  0  0
  30.48803  -8.43361   5.84472 H   0  0  0  0  0  0
  30.59086  -8.50647   4.05288 H   0  0  0  0  0  0
  31.21007 -10.28412   5.06104 C   0  0  0  0  0  0
  31.05592 -10.92134   4.17775 H   0  0  0  0  0  0
  30.85966 -11.05371   6.29997 Cl  0  0  0  0  0  0
  32.64712  -9.85910   5.12622 C   0  0  0  0  0  0
  32.80139  -9.22192   6.00951 H   0  0  0  0  0  0
  32.90421  -9.29478   4.21767 H   0  0  0  0  0  0
  33.52343 -11.07242   5.22584 C   0  0  0  0  0  0
  33.17302 -11.84201   6.46477 Cl  0  0  0  0  0  0
  34.96048 -10.64740   5.29101 C   0  0  0  0  0  0
  35.11475 -10.01022   6.17431 H   0  0  0  0  0  0
  35.21756 -10.08308   4.38247 H   0  0  0  0  0  0
  35.83678 -11.86073   5.39063 C   0  0  0  0  0  0
  35.68264 -12.49794   4.50735 H   0  0  0  0  0  0
  35.48637 -12.63030   6.62957 Cl  0  0  0  0  0  0
  37.27383 -11.43570   5.45581 C   0  0  0  0  0  0
  37.42810 -10.79853   6.33910 H   0  0  0  0  0  0
  37.53092 -10.87139   4.54727 H   0  0  0  0  0  0
  38.15014 -12.64903   5.55543 C   0  0  0  0  0  0
  37.99599 -13.28625   4.67214 H   0  0  0  0  0  0
  37.79972 -13.41861   6.79436 Cl  0  0  0  0  0  0
  39.58719 -12.22401   5.62061 C   0  0  0  0  0  0
  39.74146 -11.58683   6.50390 H   0  0  0  0  0  0
  39.84428 -11.65969   4.71206 H   0  0  0  0  0  0
  40.22982 -13.11379   5.69366 H   0  0  0  0  0  0
  1  2  1  0  0  0
  2  3  1  0  0  0
  3  4  1  0  0  0
  4  5  1  0  0  0
  5  6  1  0  0  0
  6  7  1  0  0  0
  7  8  1  0  0  0
  8  9  1  0  0  0
  9 10  1  0  0  0
 10 11  1  0  0  0
 11 12  1  0  0  0
 12 13  1  0  0  0
 13 14  1  0  0  0
 14 15  1  0  0  0
 15 16  1  0  0  0
 16 17  1  0  0  0
 17 18  1  0  0  0
 18 19  1  0  0  0
 19 20  1  0  0  0
 20 21  1  0  0  0
 21 22  1  0  0  0
 22 23  1  0  0  0
 23 24  1  0  0  0
 24 25  1  0  0  0
 25 26  1  0  0  0
 26 27  1  0  0  0
 20 28  1  0  0  0
 18 29  1  0  0  0
 16 30  1  0  0  0
 14 31  1  0  0  0
 12 32  1  0  0  0
 10 33  1  0  0  0
  8 34  1  0  0  0
  6 35  1  0  0  0
  4 36  1  0  0  0
  2 37  1  0  0  0
  2 38  1  0  0  0
  3 39  1  0  0  0
  3 40  1  0  0  0
  4 41  1  0  0  0
  5 42  1  0  0  0
  5 43  1  0  0  0
  6 44  1  0  0  0
  7 45  1  0  0  0
  7 46  1  0  0  0
  8 47  1  0  0  0
  9 48  1  0  0  0
  9 49  1  0  0  0
 10 50  1  0  0  0
 11 51  1  0  0  0
 11 52  1  0  0  0
 12 53  1  0  0  0
 13 54  1  0  0  0
 13 55  1  0  0  0
 14 56  1  0  0  0
 15 57  1  0  0  0
 15 58  1  0  0  0
 16 59  1  0  0  0
 17 60  1  0  0  0
 17 61  1  0  0  0
 18 62  1  0  0  0
 19 63  1  0  0  0
 19 64  1  0  0  0
 20 65  1  0  0  0
 21 66  1  0  0  0
 21 67  1  0  0  0
 22 68  1  0  0  0
 22 69  1  0  0  0
 23 70  1  0  0  0
 23 71  1  0  0  0
 24 72  1  0  0  0
 24 73  1  0  0  0
 25 74  1  0  0  0
 25 75  1  0  0  0
 26 76  1  0  0  0
 26 77  1  0  0  0
 27 78  1  0  0  0
 27 79  1  0  0  0
 27 80  1  0  0  0
 81 80  1  0  0  0
 82 80  1  0  0  0
 83 80  1  0  0  0
 84 83  1  0  0  0
 85 83  1  0  0  0
 86 83  1  0  0  0
 87 86  1  0  0  0
 88 86  1  0  0  0
 89 86  1  0  0  0
 90 89  1  0  0  0
 91 89  1  0  0  0
 92 89  1  0  0  0
 93 92  1  0  0  0
 94 92  1  0  0  0
 95 92  1  0  0  0
 96 95  1  0  0  0
 97 95  1  0  0  0
 98 95  1  0  0  0
 99 98  1  0  0  0
100 98  1  0  0  0
101 98  1  0  0  0
102101  1  0  0  0
103101  1  0  0  0
104101  1  0  0  0
105104  1  0  0  0
106104  1  0  0  0
107104  1  0  0  0
108107  1  0  0  0
109107  1  0  0  0
110107  1  0  0  0
111110  1  0  0  0
112110  1  0  0  0
113110  1  0  0  0
114113  1  0  0  0
115113  1  0  0  0
116113  1  0  0  0
117116  1  0  0  0
118116  1  0  0  0
119116  1  0  0  0
120119  1  0  0  0
121119  1  0  0  0
122119  1  0  0  0
123122  1  0  0  0
124122  1  0  0  0
125124  1  0  0  0
126124  1  0  0  0
127124  1  0  0  0
128127  1  0  0  0
129127  1  0  0  0
130127  1  0  0  0
131130  1  0  0  0
132130  1  0  0  0
133130  1  0  0  0
134133  1  0  0  0
135133  1  0  0  0
136133  1  0  0  0
137136  1  0  0  0
138136  1  0  0  0
139136  1  0  0  0
M  END
