
 OpenBabel10311214283D

302301  0  0  0  0  0  0  0  0999 V2000
    0.3194    5.0857   -3.2857 C   0  0  0  0  0  0  0  0  0  0  0  0
    0.0446    4.1889   -2.0677 C   0  0  0  0  0  0  0  0  0  0  0  0
    0.2625    2.6952   -2.3577 C   0  0  0  0  0  0  0  0  0  0  0  0
    0.0264    1.8340   -1.1069 C   0  0  0  0  0  0  0  0  0  0  0  0
    0.1636    0.3289   -1.3829 C   0  0  0  0  0  0  0  0  0  0  0  0
   -0.0727   -0.5098   -0.1181 C   0  0  0  0  0  0  0  0  0  0  0  0
    0.0816   -2.0182   -0.3637 C   0  0  0  0  0  0  0  0  0  0  0  0
   -0.0537   -2.8150    0.9427 C   0  0  0  0  0  0  0  0  0  0  0  0
   -0.0139   -4.3331    0.7187 C   0  0  0  0  0  0  0  0  0  0  0  0
   -0.1417   -5.1107    2.0359 C   0  0  0  0  0  0  0  0  0  0  0  0
   -0.3618    4.8392   -4.1074 H   0  0  0  0  0  0  0  0  0  0  0  0
    0.1597    6.5761   -2.9420 C   0  0  0  0  0  0  0  0  0  0  0  0
    1.3314    4.8813   -3.6517 H   0  0  0  0  0  0  0  0  0  0  0  0
    0.7698    4.4695   -1.2951 H   0  0  0  0  0  0  0  0  0  0  0  0
   -1.2453    4.4549   -1.4611 O   0  0  0  0  0  0  0  0  0  0  0  0
   -0.4094    2.3542   -3.1528 H   0  0  0  0  0  0  0  0  0  0  0  0
    1.2822    2.5556   -2.7334 H   0  0  0  0  0  0  0  0  0  0  0  0
    0.8197    2.2739    0.0245 O   0  0  0  0  0  0  0  0  0  0  0  0
   -1.0097    2.0026   -0.7916 H   0  0  0  0  0  0  0  0  0  0  0  0
   -1.3177   -0.1858    0.5507 O   0  0  0  0  0  0  0  0  0  0  0  0
    0.8800   -2.3678    1.9582 O   0  0  0  0  0  0  0  0  0  0  0  0
   -1.0399   -2.5835    1.3613 H   0  0  0  0  0  0  0  0  0  0  0  0
   -0.8199   -4.6070    0.0289 H   0  0  0  0  0  0  0  0  0  0  0  0
    0.9202   -4.6262    0.2267 H   0  0  0  0  0  0  0  0  0  0  0  0
   -1.2855   -4.7002    2.8268 O   0  0  0  0  0  0  0  0  0  0  0  0
    2.2165   -2.5360    1.7736 C   0  0  0  0  0  0  0  0  0  0  0  0
   -2.5032   -0.4102   -0.0759 C   0  0  0  0  0  0  0  0  0  0  0  0
    2.1747    2.1760   -0.0166 C   0  0  0  0  0  0  0  0  0  0  0  0
   -2.3862    4.2003   -2.1555 C   0  0  0  0  0  0  0  0  0  0  0  0
    2.9625   -1.9897    2.9520 C   0  0  0  0  0  0  0  0  0  0  0  0
    2.8350    1.7354   -0.9434 O   0  0  0  0  0  0  0  0  0  0  0  0
    2.7575    2.6840    1.2664 C   0  0  0  0  0  0  0  0  0  0  0  0
   -2.6462   -0.8555   -1.2029 O   0  0  0  0  0  0  0  0  0  0  0  0
   -3.6337   -0.0268    0.8289 C   0  0  0  0  0  0  0  0  0  0  0  0
   -2.4515    3.7600   -3.2917 O   0  0  0  0  0  0  0  0  0  0  0  0
   -3.5771    4.5353   -1.3111 C   0  0  0  0  0  0  0  0  0  0  0  0
   -3.5681    1.0363    1.0739 H   0  0  0  0  0  0  0  0  0  0  0  0
   -3.6036   -0.6349    1.7367 H   0  0  0  0  0  0  0  0  0  0  0  0
   -4.5840   -0.2091    0.3191 H   0  0  0  0  0  0  0  0  0  0  0  0
   -3.5540    5.5941   -1.0411 H   0  0  0  0  0  0  0  0  0  0  0  0
   -3.5836    3.9084   -0.4157 H   0  0  0  0  0  0  0  0  0  0  0  0
   -4.4910    4.3409   -1.8796 H   0  0  0  0  0  0  0  0  0  0  0  0
    2.4065    2.0709    2.1004 H   0  0  0  0  0  0  0  0  0  0  0  0
    2.4781    3.7305    1.4119 H   0  0  0  0  0  0  0  0  0  0  0  0
    3.8483    2.6186    1.2202 H   0  0  0  0  0  0  0  0  0  0  0  0
    2.6781   -2.5354    3.8553 H   0  0  0  0  0  0  0  0  0  0  0  0
    2.7512   -0.9230    3.0625 H   0  0  0  0  0  0  0  0  0  0  0  0
    4.0369   -2.1167    2.7915 H   0  0  0  0  0  0  0  0  0  0  0  0
    1.0568   -2.2026   -0.8271 H   0  0  0  0  0  0  0  0  0  0  0  0
   -0.6734   -2.3725   -1.0738 H   0  0  0  0  0  0  0  0  0  0  0  0
    2.7474   -3.0575    0.8066 O   0  0  0  0  0  0  0  0  0  0  0  0
    1.1604    0.0988   -1.7753 H   0  0  0  0  0  0  0  0  0  0  0  0
   -0.5457    0.0500   -2.1699 H   0  0  0  0  0  0  0  0  0  0  0  0
    0.7027   -0.2235    0.6015 H   0  0  0  0  0  0  0  0  0  0  0  0
    0.9535    6.9686   -1.7939 O   0  0  0  0  0  0  0  0  0  0  0  0
   -0.8767    6.7156   -2.6139 H   0  0  0  0  0  0  0  0  0  0  0  0
    0.3722    7.4998   -4.1527 C   0  0  0  0  0  0  0  0  0  0  0  0
    0.1747    8.9818   -3.7896 C   0  0  0  0  0  0  0  0  0  0  0  0
    2.3102    6.9115   -1.8553 C   0  0  0  0  0  0  0  0  0  0  0  0
    2.8943    7.3442   -0.5456 C   0  0  0  0  0  0  0  0  0  0  0  0
    2.9710    6.5584   -2.8185 O   0  0  0  0  0  0  0  0  0  0  0  0
    2.5744    6.6612    0.2455 H   0  0  0  0  0  0  0  0  0  0  0  0
    2.5839    8.3678   -0.3212 H   0  0  0  0  0  0  0  0  0  0  0  0
    3.9859    7.3182   -0.6092 H   0  0  0  0  0  0  0  0  0  0  0  0
   -0.3207    7.2020   -4.9473 H   0  0  0  0  0  0  0  0  0  0  0  0
    1.3803    7.3712   -4.5621 H   0  0  0  0  0  0  0  0  0  0  0  0
    0.9405    9.2281   -3.0450 H   0  0  0  0  0  0  0  0  0  0  0  0
   -1.0812    9.2296   -3.1081 O   0  0  0  0  0  0  0  0  0  0  0  0
    0.3858    9.9282   -4.9835 C   0  0  0  0  0  0  0  0  0  0  0  0
   -0.3666    9.7420   -5.7575 H   0  0  0  0  0  0  0  0  0  0  0  0
    1.3579    9.7104   -5.4383 H   0  0  0  0  0  0  0  0  0  0  0  0
    0.3032   11.4066   -4.5612 C   0  0  0  0  0  0  0  0  0  0  0  0
    1.2282   11.7317   -3.4933 O   0  0  0  0  0  0  0  0  0  0  0  0
   -0.6882   11.5550   -4.1176 H   0  0  0  0  0  0  0  0  0  0  0  0
    0.4133   12.3773   -5.7488 C   0  0  0  0  0  0  0  0  0  0  0  0
   -0.3409   12.1022   -6.4946 H   0  0  0  0  0  0  0  0  0  0  0  0
    1.3864   12.2736   -6.2409 H   0  0  0  0  0  0  0  0  0  0  0  0
    0.2303   13.8463   -5.3217 C   0  0  0  0  0  0  0  0  0  0  0  0
   -2.2577    8.9927   -3.7468 C   0  0  0  0  0  0  0  0  0  0  0  0
   -2.3848    8.5760   -4.8868 O   0  0  0  0  0  0  0  0  0  0  0  0
   -3.4022    9.3076   -2.8333 C   0  0  0  0  0  0  0  0  0  0  0  0
   -3.3568   10.3564   -2.5297 H   0  0  0  0  0  0  0  0  0  0  0  0
   -3.3699    8.6506   -1.9605 H   0  0  0  0  0  0  0  0  0  0  0  0
   -4.3447    9.1395   -3.3623 H   0  0  0  0  0  0  0  0  0  0  0  0
    2.5683   11.6350   -3.7052 C   0  0  0  0  0  0  0  0  0  0  0  0
    3.3064   12.0024   -2.4548 C   0  0  0  0  0  0  0  0  0  0  0  0
    3.0534   11.3000   -1.6565 H   0  0  0  0  0  0  0  0  0  0  0  0
    3.0561   13.0255   -2.1631 H   0  0  0  0  0  0  0  0  0  0  0  0
    4.3830   11.9475   -2.6402 H   0  0  0  0  0  0  0  0  0  0  0  0
    3.1077   11.2914   -4.7447 O   0  0  0  0  0  0  0  0  0  0  0  0
    1.0219   14.0714   -4.5977 H   0  0  0  0  0  0  0  0  0  0  0  0
   -0.9993   14.0560   -4.5859 O   0  0  0  0  0  0  0  0  0  0  0  0
    0.4068   14.8220   -6.4964 C   0  0  0  0  0  0  0  0  0  0  0  0
   -0.2773   14.5648   -7.3136 H   0  0  0  0  0  0  0  0  0  0  0  0
    1.4163   14.6901   -6.9031 H   0  0  0  0  0  0  0  0  0  0  0  0
    0.1729   16.2932   -6.1175 C   0  0  0  0  0  0  0  0  0  0  0  0
    0.8531   16.7065   -4.9102 O   0  0  0  0  0  0  0  0  0  0  0  0
   -0.8920   16.4109   -5.8836 H   0  0  0  0  0  0  0  0  0  0  0  0
    0.4697   17.2472   -7.2719 C   0  0  0  0  0  0  0  0  0  0  0  0
   -2.1981   13.8764   -5.1999 C   0  0  0  0  0  0  0  0  0  0  0  0
    2.2095   16.6578   -4.8458 C   0  0  0  0  0  0  0  0  0  0  0  0
   -2.3669   13.5707   -6.3696 O   0  0  0  0  0  0  0  0  0  0  0  0
   -3.3071   14.0948   -4.2166 C   0  0  0  0  0  0  0  0  0  0  0  0
    2.9578   16.2520   -5.7212 O   0  0  0  0  0  0  0  0  0  0  0  0
    2.6691   17.1406   -3.5039 C   0  0  0  0  0  0  0  0  0  0  0  0
    2.3411   16.4430   -2.7291 H   0  0  0  0  0  0  0  0  0  0  0  0
    2.2745   18.1417   -3.3127 H   0  0  0  0  0  0  0  0  0  0  0  0
    3.7615   17.1936   -3.4922 H   0  0  0  0  0  0  0  0  0  0  0  0
   -3.2471   15.1064   -3.8074 H   0  0  0  0  0  0  0  0  0  0  0  0
   -3.2438   13.3513   -3.4178 H   0  0  0  0  0  0  0  0  0  0  0  0
   -4.2694   13.9816   -4.7240 H   0  0  0  0  0  0  0  0  0  0  0  0
   -0.1783   17.0360   -8.1284 H   0  0  0  0  0  0  0  0  0  0  0  0
    1.5082   17.1699   -7.6078 H   0  0  0  0  0  0  0  0  0  0  0  0
    0.3112   18.2850   -6.9603 H   0  0  0  0  0  0  0  0  0  0  0  0
   -2.5445   -4.8865    2.3496 C   0  0  0  0  0  0  0  0  0  0  0  0
   -2.8382   -5.3644    1.2659 O   0  0  0  0  0  0  0  0  0  0  0  0
   -3.5437   -4.4123    3.3598 C   0  0  0  0  0  0  0  0  0  0  0  0
   -3.4111   -3.3423    3.5380 H   0  0  0  0  0  0  0  0  0  0  0  0
   -3.4271   -4.9762    4.2889 H   0  0  0  0  0  0  0  0  0  0  0  0
   -4.5543   -4.5801    2.9765 H   0  0  0  0  0  0  0  0  0  0  0  0
    0.7236   -4.8392    2.6513 H   0  0  0  0  0  0  0  0  0  0  0  0
   -0.0863   -6.6312    1.8322 C   0  0  0  0  0  0  0  0  0  0  0  0
    0.8272   -6.8809    1.2817 H   0  0  0  0  0  0  0  0  0  0  0  0
   -0.9240   -6.9669    1.2112 H   0  0  0  0  0  0  0  0  0  0  0  0
   -0.1325   -7.3804    3.1714 C   0  0  0  0  0  0  0  0  0  0  0  0
   -1.0700   -7.0992    3.6649 H   0  0  0  0  0  0  0  0  0  0  0  0
    0.9015   -6.9429    4.0893 O   0  0  0  0  0  0  0  0  0  0  0  0
   -0.1616   -8.9043    2.9945 C   0  0  0  0  0  0  0  0  0  0  0  0
    2.2108   -7.1522    3.7873 C   0  0  0  0  0  0  0  0  0  0  0  0
    2.6374   -7.6941    2.7807 O   0  0  0  0  0  0  0  0  0  0  0  0
    3.0755   -6.6172    4.8872 C   0  0  0  0  0  0  0  0  0  0  0  0
    2.8461   -7.1336    5.8228 H   0  0  0  0  0  0  0  0  0  0  0  0
    2.9185   -5.5407    4.9913 H   0  0  0  0  0  0  0  0  0  0  0  0
    4.1263   -6.7943    4.6407 H   0  0  0  0  0  0  0  0  0  0  0  0
    0.7399   -9.2499    2.4770 H   0  0  0  0  0  0  0  0  0  0  0  0
   -1.0066   -9.1679    2.3491 H   0  0  0  0  0  0  0  0  0  0  0  0
   -0.2657   -9.6282    4.3438 C   0  0  0  0  0  0  0  0  0  0  0  0
   -1.3941   -9.1782    5.1351 O   0  0  0  0  0  0  0  0  0  0  0  0
    0.6115   -9.3375    4.9330 H   0  0  0  0  0  0  0  0  0  0  0  0
   -0.2180  -11.1541    4.1950 C   0  0  0  0  0  0  0  0  0  0  0  0
    0.6963  -11.4266    3.6564 H   0  0  0  0  0  0  0  0  0  0  0  0
   -1.0531  -11.5077    3.5803 H   0  0  0  0  0  0  0  0  0  0  0  0
   -0.2731  -11.8615    5.5558 C   0  0  0  0  0  0  0  0  0  0  0  0
   -1.2236  -11.5827    6.0250 H   0  0  0  0  0  0  0  0  0  0  0  0
    0.7368  -11.3826    6.4790 O   0  0  0  0  0  0  0  0  0  0  0  0
   -0.2721  -13.3888    5.4166 C   0  0  0  0  0  0  0  0  0  0  0  0
   -2.6623   -9.3889    4.6928 C   0  0  0  0  0  0  0  0  0  0  0  0
   -2.9771   -9.9343    3.6476 O   0  0  0  0  0  0  0  0  0  0  0  0
   -3.6420   -8.8471    5.6880 C   0  0  0  0  0  0  0  0  0  0  0  0
   -3.5024   -7.7686    5.7958 H   0  0  0  0  0  0  0  0  0  0  0  0
   -3.5115   -9.3517    6.6487 H   0  0  0  0  0  0  0  0  0  0  0  0
   -4.6597   -9.0338    5.3332 H   0  0  0  0  0  0  0  0  0  0  0  0
    2.0547  -11.5687    6.2019 C   0  0  0  0  0  0  0  0  0  0  0  0
    2.5095  -12.1179    5.2117 O   0  0  0  0  0  0  0  0  0  0  0  0
    2.8898  -10.9924    7.3039 C   0  0  0  0  0  0  0  0  0  0  0  0
    2.6508  -11.4886    8.2480 H   0  0  0  0  0  0  0  0  0  0  0  0
    2.7141   -9.9163    7.3776 H   0  0  0  0  0  0  0  0  0  0  0  0
    3.9478  -11.1591    7.0819 H   0  0  0  0  0  0  0  0  0  0  0  0
    0.6393  -13.7284    4.9121 H   0  0  0  0  0  0  0  0  0  0  0  0
   -1.1070  -13.6833    4.7711 H   0  0  0  0  0  0  0  0  0  0  0  0
   -0.3707  -14.0884    6.7784 C   0  0  0  0  0  0  0  0  0  0  0  0
   -1.4962  -13.6278    7.5669 O   0  0  0  0  0  0  0  0  0  0  0  0
    0.5089  -13.7880    7.3594 H   0  0  0  0  0  0  0  0  0  0  0  0
   -0.3229  -15.6156    6.6473 C   0  0  0  0  0  0  0  0  0  0  0  0
    0.5915  -15.8935    6.1113 H   0  0  0  0  0  0  0  0  0  0  0  0
   -1.1573  -15.9750    6.0349 H   0  0  0  0  0  0  0  0  0  0  0  0
   -0.3793  -16.3128    8.0127 C   0  0  0  0  0  0  0  0  0  0  0  0
   -1.3324  -16.0348    8.4770 H   0  0  0  0  0  0  0  0  0  0  0  0
    0.6259  -15.8250    8.9357 O   0  0  0  0  0  0  0  0  0  0  0  0
   -0.3714  -17.8406    7.8785 C   0  0  0  0  0  0  0  0  0  0  0  0
   -2.7658  -13.8408    7.1297 C   0  0  0  0  0  0  0  0  0  0  0  0
   -3.0838  -14.4022    6.0941 O   0  0  0  0  0  0  0  0  0  0  0  0
   -3.7419  -13.2766    8.1159 C   0  0  0  0  0  0  0  0  0  0  0  0
   -3.5975  -12.1968    8.2035 H   0  0  0  0  0  0  0  0  0  0  0  0
   -3.6122  -13.7637    9.0858 H   0  0  0  0  0  0  0  0  0  0  0  0
   -4.7608  -13.4653    7.7659 H   0  0  0  0  0  0  0  0  0  0  0  0
    1.9454  -16.0037    8.6615 C   0  0  0  0  0  0  0  0  0  0  0  0
    2.4055  -16.5556    7.6753 O   0  0  0  0  0  0  0  0  0  0  0  0
    2.7751  -15.4132    9.7600 C   0  0  0  0  0  0  0  0  0  0  0  0
    2.5365  -15.9016   10.7082 H   0  0  0  0  0  0  0  0  0  0  0  0
    2.5939  -14.3372    9.8232 H   0  0  0  0  0  0  0  0  0  0  0  0
    3.8344  -15.5766    9.5420 H   0  0  0  0  0  0  0  0  0  0  0  0
    0.5433  -18.1776    7.3780 H   0  0  0  0  0  0  0  0  0  0  0  0
   -1.2023  -18.1401    7.2299 H   0  0  0  0  0  0  0  0  0  0  0  0
   -0.4724  -18.5405    9.2398 C   0  0  0  0  0  0  0  0  0  0  0  0
   -1.5979  -18.0788   10.0274 O   0  0  0  0  0  0  0  0  0  0  0  0
    0.4072  -18.2417    9.8214 H   0  0  0  0  0  0  0  0  0  0  0  0
   -0.4277  -20.0679    9.1046 C   0  0  0  0  0  0  0  0  0  0  0  0
    0.4857  -20.3457    8.5669 H   0  0  0  0  0  0  0  0  0  0  0  0
   -1.2631  -20.4236    8.4913 H   0  0  0  0  0  0  0  0  0  0  0  0
   -0.4847  -20.7713   10.4668 C   0  0  0  0  0  0  0  0  0  0  0  0
   -1.4388  -20.4960   10.9307 H   0  0  0  0  0  0  0  0  0  0  0  0
    0.5186  -20.2856   11.3928 O   0  0  0  0  0  0  0  0  0  0  0  0
   -0.4741  -22.2992   10.3258 C   0  0  0  0  0  0  0  0  0  0  0  0
   -2.8673  -18.2845    9.5862 C   0  0  0  0  0  0  0  0  0  0  0  0
   -3.1852  -18.8442    8.5496 O   0  0  0  0  0  0  0  0  0  0  0  0
   -3.8433  -17.7117   10.5675 C   0  0  0  0  0  0  0  0  0  0  0  0
   -3.6946  -16.6321   10.6501 H   0  0  0  0  0  0  0  0  0  0  0  0
   -3.7180  -18.1946   11.5400 H   0  0  0  0  0  0  0  0  0  0  0  0
   -4.8622  -17.8979   10.2160 H   0  0  0  0  0  0  0  0  0  0  0  0
    1.8387  -20.4567   11.1170 C   0  0  0  0  0  0  0  0  0  0  0  0
    2.3007  -21.0044   10.1293 O   0  0  0  0  0  0  0  0  0  0  0  0
    2.6664  -19.8607   12.2140 C   0  0  0  0  0  0  0  0  0  0  0  0
    2.4294  -20.3471   13.1636 H   0  0  0  0  0  0  0  0  0  0  0  0
    2.4818  -18.7852   12.2741 H   0  0  0  0  0  0  0  0  0  0  0  0
    3.7263  -20.0215   11.9966 H   0  0  0  0  0  0  0  0  0  0  0  0
    0.4428  -22.6325    9.8270 H   0  0  0  0  0  0  0  0  0  0  0  0
   -1.3023  -22.5968    9.6729 H   0  0  0  0  0  0  0  0  0  0  0  0
   -0.5790  -23.0067   11.6833 C   0  0  0  0  0  0  0  0  0  0  0  0
   -1.7047  -22.5456   12.4711 O   0  0  0  0  0  0  0  0  0  0  0  0
    0.3004  -22.7115   12.2672 H   0  0  0  0  0  0  0  0  0  0  0  0
   -0.5374  -24.5347   11.5430 C   0  0  0  0  0  0  0  0  0  0  0  0
   -2.9735  -22.7431   12.0247 C   0  0  0  0  0  0  0  0  0  0  0  0
   -3.2907  -23.2979   10.9852 O   0  0  0  0  0  0  0  0  0  0  0  0
   -3.9498  -22.1654   13.0029 C   0  0  0  0  0  0  0  0  0  0  0  0
   -3.7974  -21.0861   13.0840 H   0  0  0  0  0  0  0  0  0  0  0  0
   -3.8286  -22.6470   13.9765 H   0  0  0  0  0  0  0  0  0  0  0  0
   -4.9686  -22.3486   12.6493 H   0  0  0  0  0  0  0  0  0  0  0  0
    0.3750  -24.8128   11.0038 H   0  0  0  0  0  0  0  0  0  0  0  0
   -1.3743  -24.8868   10.9296 H   0  0  0  0  0  0  0  0  0  0  0  0
   -0.5950  -25.2423   12.9039 C   0  0  0  0  0  0  0  0  0  0  0  0
   -1.5484  -24.9647   13.3677 H   0  0  0  0  0  0  0  0  0  0  0  0
    0.4091  -24.7582   13.8301 O   0  0  0  0  0  0  0  0  0  0  0  0
   -0.5878  -26.7716   12.7652 C   0  0  0  0  0  0  0  0  0  0  0  0
    1.7289  -24.9277   13.5516 C   0  0  0  0  0  0  0  0  0  0  0  0
    2.1895  -25.4774   12.5644 O   0  0  0  0  0  0  0  0  0  0  0  0
    2.5580  -24.3246   14.6437 C   0  0  0  0  0  0  0  0  0  0  0  0
    2.3241  -24.8064   15.5963 H   0  0  0  0  0  0  0  0  0  0  0  0
    2.3715  -23.2491   14.6985 H   0  0  0  0  0  0  0  0  0  0  0  0
    3.6177  -24.4844   14.4246 H   0  0  0  0  0  0  0  0  0  0  0  0
    0.3305  -27.1085   12.2715 H   0  0  0  0  0  0  0  0  0  0  0  0
   -1.4141  -27.0683   12.1097 H   0  0  0  0  0  0  0  0  0  0  0  0
   -0.7006  -27.4757   14.1251 C   0  0  0  0  0  0  0  0  0  0  0  0
   -1.8264  -27.0046   14.9072 O   0  0  0  0  0  0  0  0  0  0  0  0
    0.1784  -27.1813   14.7099 H   0  0  0  0  0  0  0  0  0  0  0  0
   -0.6669  -29.0065   13.9974 C   0  0  0  0  0  0  0  0  0  0  0  0
    0.2430  -29.2937   13.4589 H   0  0  0  0  0  0  0  0  0  0  0  0
   -1.5071  -29.3597   13.3895 H   0  0  0  0  0  0  0  0  0  0  0  0
   -0.7249  -29.7006   15.3667 C   0  0  0  0  0  0  0  0  0  0  0  0
   -1.6738  -29.4086   15.8310 H   0  0  0  0  0  0  0  0  0  0  0  0
    0.2877  -29.2129   16.2822 O   0  0  0  0  0  0  0  0  0  0  0  0
   -0.7320  -31.2333   15.2525 C   0  0  0  0  0  0  0  0  0  0  0  0
   -3.0945  -27.1958   14.4561 C   0  0  0  0  0  0  0  0  0  0  0  0
   -3.4107  -27.7552   13.4187 O   0  0  0  0  0  0  0  0  0  0  0  0
   -4.0711  -26.6034   15.4251 C   0  0  0  0  0  0  0  0  0  0  0  0
   -3.9109  -25.5247   15.4985 H   0  0  0  0  0  0  0  0  0  0  0  0
   -3.9580  -27.0783   16.4029 H   0  0  0  0  0  0  0  0  0  0  0  0
   -5.0895  -26.7816   15.0680 H   0  0  0  0  0  0  0  0  0  0  0  0
    1.6046  -29.3959   15.9985 C   0  0  0  0  0  0  0  0  0  0  0  0
    2.0553  -29.9645   15.0173 O   0  0  0  0  0  0  0  0  0  0  0  0
    2.4447  -28.7807   17.0753 C   0  0  0  0  0  0  0  0  0  0  0  0
    2.2162  -29.2478   18.0365 H   0  0  0  0  0  0  0  0  0  0  0  0
    2.2628  -27.7037   17.1160 H   0  0  0  0  0  0  0  0  0  0  0  0
    3.5019  -28.9477   16.8501 H   0  0  0  0  0  0  0  0  0  0  0  0
    0.1853  -31.5866   14.7687 H   0  0  0  0  0  0  0  0  0  0  0  0
   -1.5587  -31.5328   14.5990 H   0  0  0  0  0  0  0  0  0  0  0  0
   -0.8571  -31.9130   16.6257 C   0  0  0  0  0  0  0  0  0  0  0  0
   -1.9907  -31.4270   17.3868 O   0  0  0  0  0  0  0  0  0  0  0  0
    0.0159  -31.6040   17.2121 H   0  0  0  0  0  0  0  0  0  0  0  0
   -0.8187  -33.4472   16.5343 C   0  0  0  0  0  0  0  0  0  0  0  0
    0.0942  -33.7426   16.0050 H   0  0  0  0  0  0  0  0  0  0  0  0
   -1.6559  -33.8182   15.9329 H   0  0  0  0  0  0  0  0  0  0  0  0
   -0.8743  -34.1139   17.9195 C   0  0  0  0  0  0  0  0  0  0  0  0
   -1.8292  -33.8277   18.3758 H   0  0  0  0  0  0  0  0  0  0  0  0
    0.1299  -33.5889   18.8240 O   0  0  0  0  0  0  0  0  0  0  0  0
   -0.8562  -35.6498   17.8361 C   0  0  0  0  0  0  0  0  0  0  0  0
   -3.2538  -31.6290   16.9266 C   0  0  0  0  0  0  0  0  0  0  0  0
   -3.5590  -32.2170   15.9017 O   0  0  0  0  0  0  0  0  0  0  0  0
   -4.2403  -31.0063   17.8660 C   0  0  0  0  0  0  0  0  0  0  0  0
   -4.0750  -29.9268   17.9131 H   0  0  0  0  0  0  0  0  0  0  0  0
   -4.1434  -31.4557   18.8574 H   0  0  0  0  0  0  0  0  0  0  0  0
   -5.2546  -31.1880   17.4992 H   0  0  0  0  0  0  0  0  0  0  0  0
    1.4498  -33.7717   18.5546 C   0  0  0  0  0  0  0  0  0  0  0  0
    1.9107  -34.3782   17.6009 O   0  0  0  0  0  0  0  0  0  0  0  0
    2.2797  -33.1035   19.6073 C   0  0  0  0  0  0  0  0  0  0  0  0
    2.0535  -33.5330   20.5863 H   0  0  0  0  0  0  0  0  0  0  0  0
    2.0864  -32.0277   19.6027 H   0  0  0  0  0  0  0  0  0  0  0  0
    3.3394  -33.2680   19.3915 H   0  0  0  0  0  0  0  0  0  0  0  0
    0.0599  -35.9931   17.3431 H   0  0  0  0  0  0  0  0  0  0  0  0
   -1.6858  -35.9751   17.1990 H   0  0  0  0  0  0  0  0  0  0  0  0
   -0.9460  -36.3124   19.2223 C   0  0  0  0  0  0  0  0  0  0  0  0
   -2.0992  -35.8675   19.9777 O   0  0  0  0  0  0  0  0  0  0  0  0
   -0.0863  -35.9552   19.8012 H   0  0  0  0  0  0  0  0  0  0  0  0
   -0.8349  -37.8437   19.1519 C   0  0  0  0  0  0  0  0  0  0  0  0
    0.0663  -38.0999   18.5824 H   0  0  0  0  0  0  0  0  0  0  0  0
   -1.6851  -38.2772   18.6163 H   0  0  0  0  0  0  0  0  0  0  0  0
   -0.7545  -38.4882   20.5359 C   0  0  0  0  0  0  0  0  0  0  0  0
   -1.6675  -38.2846   21.1054 H   0  0  0  0  0  0  0  0  0  0  0  0
    0.3420  -37.9513   21.2954 O   0  0  0  0  0  0  0  0  0  0  0  0
   -0.6708  -39.5786   20.4564 H   0  0  0  0  0  0  0  0  0  0  0  0
   -3.3527  -36.1289   19.5213 C   0  0  0  0  0  0  0  0  0  0  0  0
   -3.6336  -36.7534   18.5106 O   0  0  0  0  0  0  0  0  0  0  0  0
   -4.3649  -35.5098   20.4358 C   0  0  0  0  0  0  0  0  0  0  0  0
   -4.2511  -34.4227   20.4299 H   0  0  0  0  0  0  0  0  0  0  0  0
   -4.2441  -35.9052   21.4472 H   0  0  0  0  0  0  0  0  0  0  0  0
   -5.3705  -35.7576   20.0839 H   0  0  0  0  0  0  0  0  0  0  0  0
    1.5651  -38.4903   21.0374 C   0  0  0  0  0  0  0  0  0  0  0  0
    1.7934  -39.3947   20.2483 O   0  0  0  0  0  0  0  0  0  0  0  0
    2.6110  -37.7894   21.8494 C   0  0  0  0  0  0  0  0  0  0  0  0
    2.4030  -37.9175   22.9144 H   0  0  0  0  0  0  0  0  0  0  0  0
    2.6333  -36.7285   21.5861 H   0  0  0  0  0  0  0  0  0  0  0  0
    3.5911  -38.2224   21.6299 H   0  0  0  0  0  0  0  0  0  0  0  0
  1  2  1  0  0  0  0
  1 11  1  0  0  0  0
  1 12  1  0  0  0  0
  1 13  1  0  0  0  0
  2  3  1  0  0  0  0
  2 14  1  0  0  0  0
  2 15  1  0  0  0  0
  3  4  1  0  0  0  0
  3 16  1  0  0  0  0
  3 17  1  0  0  0  0
  4  5  1  0  0  0  0
  4 18  1  0  0  0  0
  4 19  1  0  0  0  0
  5  6  1  0  0  0  0
  6  7  1  0  0  0  0
  6 20  1  0  0  0  0
  7  8  1  0  0  0  0
  8  9  1  0  0  0  0
  8 21  1  0  0  0  0
  8 22  1  0  0  0  0
  9 10  1  0  0  0  0
  9 23  1  0  0  0  0
  9 24  1  0  0  0  0
 10 25  1  0  0  0  0
 26 21  1  0  0  0  0
 27 20  1  0  0  0  0
 28 18  1  0  0  0  0
 29 15  1  0  0  0  0
 30 26  1  0  0  0  0
 31 28  2  0  0  0  0
 32 28  1  0  0  0  0
 33 27  2  0  0  0  0
 34 27  1  0  0  0  0
 35 29  2  0  0  0  0
 36 29  1  0  0  0  0
 37 34  1  0  0  0  0
 38 34  1  0  0  0  0
 39 34  1  0  0  0  0
 40 36  1  0  0  0  0
 41 36  1  0  0  0  0
 42 36  1  0  0  0  0
 43 32  1  0  0  0  0
 44 32  1  0  0  0  0
 45 32  1  0  0  0  0
 46 30  1  0  0  0  0
 47 30  1  0  0  0  0
 48 30  1  0  0  0  0
 49  7  1  0  0  0  0
 50  7  1  0  0  0  0
 51 26  2  0  0  0  0
 52  5  1  0  0  0  0
 53  5  1  0  0  0  0
 54  6  1  0  0  0  0
 55 12  1  0  0  0  0
 56 12  1  0  0  0  0
 57 12  1  0  0  0  0
 58 57  1  0  0  0  0
 59 55  1  0  0  0  0
 60 59  1  0  0  0  0
 61 59  2  0  0  0  0
 62 60  1  0  0  0  0
 63 60  1  0  0  0  0
 64 60  1  0  0  0  0
 65 57  1  0  0  0  0
 66 57  1  0  0  0  0
 67 58  1  0  0  0  0
 68 58  1  0  0  0  0
 69 58  1  0  0  0  0
 70 69  1  0  0  0  0
 71 69  1  0  0  0  0
 72 69  1  0  0  0  0
 73 72  1  0  0  0  0
 74 72  1  0  0  0  0
 75 72  1  0  0  0  0
 76 75  1  0  0  0  0
 77 75  1  0  0  0  0
 78 75  1  0  0  0  0
 79 68  1  0  0  0  0
 80 79  2  0  0  0  0
 81 79  1  0  0  0  0
 82 81  1  0  0  0  0
 83 81  1  0  0  0  0
 84 81  1  0  0  0  0
 85 73  1  0  0  0  0
 86 85  1  0  0  0  0
 87 86  1  0  0  0  0
 88 86  1  0  0  0  0
 89 86  1  0  0  0  0
 90 85  2  0  0  0  0
 91 78  1  0  0  0  0
 92 78  1  0  0  0  0
 93 78  1  0  0  0  0
 94 93  1  0  0  0  0
 95 93  1  0  0  0  0
 96 93  1  0  0  0  0
 97 96  1  0  0  0  0
 98 96  1  0  0  0  0
 99 96  1  0  0  0  0
100 92  1  0  0  0  0
101 97  1  0  0  0  0
102100  2  0  0  0  0
103100  1  0  0  0  0
104101  2  0  0  0  0
105101  1  0  0  0  0
106105  1  0  0  0  0
107105  1  0  0  0  0
108105  1  0  0  0  0
109103  1  0  0  0  0
110103  1  0  0  0  0
111103  1  0  0  0  0
112 99  1  0  0  0  0
113 99  1  0  0  0  0
114 99  1  0  0  0  0
115 25  1  0  0  0  0
116115  2  0  0  0  0
117115  1  0  0  0  0
118117  1  0  0  0  0
119117  1  0  0  0  0
120117  1  0  0  0  0
121 10  1  0  0  0  0
122 10  1  0  0  0  0
123122  1  0  0  0  0
124122  1  0  0  0  0
125122  1  0  0  0  0
126125  1  0  0  0  0
127125  1  0  0  0  0
128125  1  0  0  0  0
129127  1  0  0  0  0
130129  2  0  0  0  0
131129  1  0  0  0  0
132131  1  0  0  0  0
133131  1  0  0  0  0
134131  1  0  0  0  0
135128  1  0  0  0  0
136128  1  0  0  0  0
137128  1  0  0  0  0
138137  1  0  0  0  0
139137  1  0  0  0  0
140137  1  0  0  0  0
141140  1  0  0  0  0
142140  1  0  0  0  0
143140  1  0  0  0  0
144143  1  0  0  0  0
145143  1  0  0  0  0
146143  1  0  0  0  0
147138  1  0  0  0  0
148147  2  0  0  0  0
149147  1  0  0  0  0
150149  1  0  0  0  0
151149  1  0  0  0  0
152149  1  0  0  0  0
153145  1  0  0  0  0
154153  2  0  0  0  0
155153  1  0  0  0  0
156155  1  0  0  0  0
157155  1  0  0  0  0
158155  1  0  0  0  0
159146  1  0  0  0  0
160146  1  0  0  0  0
161146  1  0  0  0  0
162161  1  0  0  0  0
163161  1  0  0  0  0
164161  1  0  0  0  0
165164  1  0  0  0  0
166164  1  0  0  0  0
167164  1  0  0  0  0
168167  1  0  0  0  0
169167  1  0  0  0  0
170167  1  0  0  0  0
171162  1  0  0  0  0
172171  2  0  0  0  0
173171  1  0  0  0  0
174173  1  0  0  0  0
175173  1  0  0  0  0
176173  1  0  0  0  0
177169  1  0  0  0  0
178177  2  0  0  0  0
179177  1  0  0  0  0
180179  1  0  0  0  0
181179  1  0  0  0  0
182179  1  0  0  0  0
183170  1  0  0  0  0
184170  1  0  0  0  0
185170  1  0  0  0  0
186185  1  0  0  0  0
187185  1  0  0  0  0
188185  1  0  0  0  0
189188  1  0  0  0  0
190188  1  0  0  0  0
191188  1  0  0  0  0
192191  1  0  0  0  0
193191  1  0  0  0  0
194191  1  0  0  0  0
195186  1  0  0  0  0
196195  2  0  0  0  0
197195  1  0  0  0  0
198197  1  0  0  0  0
199197  1  0  0  0  0
200197  1  0  0  0  0
201193  1  0  0  0  0
202201  2  0  0  0  0
203201  1  0  0  0  0
204203  1  0  0  0  0
205203  1  0  0  0  0
206203  1  0  0  0  0
207194  1  0  0  0  0
208194  1  0  0  0  0
209194  1  0  0  0  0
210209  1  0  0  0  0
211209  1  0  0  0  0
212209  1  0  0  0  0
213210  1  0  0  0  0
214213  2  0  0  0  0
215213  1  0  0  0  0
216215  1  0  0  0  0
217215  1  0  0  0  0
218215  1  0  0  0  0
219212  1  0  0  0  0
220212  1  0  0  0  0
221212  1  0  0  0  0
222221  1  0  0  0  0
223221  1  0  0  0  0
224221  1  0  0  0  0
225223  1  0  0  0  0
226225  2  0  0  0  0
227225  1  0  0  0  0
228227  1  0  0  0  0
229227  1  0  0  0  0
230227  1  0  0  0  0
231224  1  0  0  0  0
232224  1  0  0  0  0
233224  1  0  0  0  0
234233  1  0  0  0  0
235233  1  0  0  0  0
236233  1  0  0  0  0
237236  1  0  0  0  0
238236  1  0  0  0  0
239236  1  0  0  0  0
240239  1  0  0  0  0
241239  1  0  0  0  0
242239  1  0  0  0  0
243234  1  0  0  0  0
244243  2  0  0  0  0
245243  1  0  0  0  0
246245  1  0  0  0  0
247245  1  0  0  0  0
248245  1  0  0  0  0
249241  1  0  0  0  0
250249  2  0  0  0  0
251249  1  0  0  0  0
252251  1  0  0  0  0
253251  1  0  0  0  0
254251  1  0  0  0  0
255242  1  0  0  0  0
256242  1  0  0  0  0
257242  1  0  0  0  0
258257  1  0  0  0  0
259257  1  0  0  0  0
260257  1  0  0  0  0
261260  1  0  0  0  0
262260  1  0  0  0  0
263260  1  0  0  0  0
264263  1  0  0  0  0
265263  1  0  0  0  0
266263  1  0  0  0  0
267258  1  0  0  0  0
268267  2  0  0  0  0
269267  1  0  0  0  0
270269  1  0  0  0  0
271269  1  0  0  0  0
272269  1  0  0  0  0
273265  1  0  0  0  0
274273  2  0  0  0  0
275273  1  0  0  0  0
276275  1  0  0  0  0
277275  1  0  0  0  0
278275  1  0  0  0  0
279266  1  0  0  0  0
280266  1  0  0  0  0
281266  1  0  0  0  0
282281  1  0  0  0  0
283281  1  0  0  0  0
284281  1  0  0  0  0
285284  1  0  0  0  0
286284  1  0  0  0  0
287284  1  0  0  0  0
288287  1  0  0  0  0
289287  1  0  0  0  0
290287  1  0  0  0  0
291282  1  0  0  0  0
292291  2  0  0  0  0
293291  1  0  0  0  0
294293  1  0  0  0  0
295293  1  0  0  0  0
296293  1  0  0  0  0
297289  1  0  0  0  0
298297  2  0  0  0  0
299297  1  0  0  0  0
300299  1  0  0  0  0
301299  1  0  0  0  0
302299  1  0  0  0  0
M  END
