file:/home/renata/1,4-polybutadienetrans/15.mol
__Jmol-12_06111316083D 1   1.00000     0.00000     0
Jmol version 12.3.28  2012-05-30 15:29 EXTRACT: ({0:134 137 140:148 151 154:159})
152151  0  0  0  0              1 V2000
   0.12475  -0.06889   0.27780 C   0  0  0  0  0  0
   1.43699  -0.76783   0.35168 C   0  0  0  0  0  0
   0.12378   0.79164   0.98288 H   0  0  0  0  0  0
  -0.11942   0.40814  -1.17268 C   0  0  0  0  0  0
  -0.70779  -0.72902   0.61733 H   0  0  0  0  0  0
   1.64128  -1.76880   1.21673 C   0  0  0  0  0  0
   2.99652  -2.43445   1.24679 C   0  0  0  0  0  0
   3.80377  -1.67192   1.29347 H   0  0  0  0  0  0
   3.15185  -2.98700   0.29045 H   0  0  0  0  0  0
   3.07212  -3.39131   2.45949 C   0  0  0  0  0  0
   2.22390  -0.39993  -0.32413 H   0  0  0  0  0  0
   0.86407  -2.13927   1.89134 H   0  0  0  0  0  0
  -0.01066  -0.44247  -1.87891 H   0  0  0  0  0  0
   0.66040   1.15037  -1.46743 H   0  0  0  0  0  0
  -1.48482   1.04102  -1.24958 C   0  0  0  0  0  0
  -2.16669   1.00363  -2.40567 C   0  0  0  0  0  0
  -3.52441   1.66227  -2.46596 C   0  0  0  0  0  0
  -3.45870   2.71216  -2.10695 H   0  0  0  0  0  0
  -4.21845   1.14191  -1.76502 H   0  0  0  0  0  0
  -4.05573   1.60729  -3.91766 C   0  0  0  0  0  0
  -1.86049   1.53713  -0.34905 H   0  0  0  0  0  0
  -1.78739   0.50757  -3.30368 H   0  0  0  0  0  0
   2.24097  -4.12785   2.42427 H   0  0  0  0  0  0
   2.92959  -2.81329   3.40316 H   0  0  0  0  0  0
   4.41712  -4.07051   2.45858 C   0  0  0  0  0  0
   4.55896  -5.24637   3.08455 C   0  0  0  0  0  0
   5.91451  -5.91090   3.07555 C   0  0  0  0  0  0
   5.24328  -3.56034   1.95406 H   0  0  0  0  0  0
   3.73176  -5.75292   3.58958 H   0  0  0  0  0  0
   6.69502  -5.20089   3.42456 H   0  0  0  0  0  0
   6.18692  -6.17377   2.02637 H   0  0  0  0  0  0
   5.87408  -7.17224   3.97031 C   0  0  0  0  0  0
   5.05782  -7.85171   3.64434 H   0  0  0  0  0  0
   5.62966  -6.88150   5.01946 H   0  0  0  0  0  0
   7.22246  -7.84313   3.91547 C   0  0  0  0  0  0
   7.30435  -9.17578   4.05851 C   0  0  0  0  0  0
   8.66710  -9.82599   4.02065 C   0  0  0  0  0  0
   9.26862  -9.49226   4.89392 H   0  0  0  0  0  0
   9.22341  -9.48476   3.11615 H   0  0  0  0  0  0
   8.49683 -11.36385   4.01920 C   0  0  0  0  0  0
   8.09848  -7.20146   3.77738 H   0  0  0  0  0  0
   6.42721  -9.81353   4.20106 H   0  0  0  0  0  0
  -4.08173   0.55766  -4.28054 H   0  0  0  0  0  0
  -3.35384   2.14844  -4.59574 H   0  0  0  0  0  0
  -5.41600   2.25450  -3.95826 C   0  0  0  0  0  0
  -6.32149   1.83527  -4.85553 C   0  0  0  0  0  0
  -7.66535   2.52288  -4.90212 C   0  0  0  0  0  0
  -7.53488   3.57890  -5.22429 H   0  0  0  0  0  0
  -8.10524   2.56622  -3.87816 H   0  0  0  0  0  0
  -8.59563   1.75872  -5.87395 C   0  0  0  0  0  0
  -5.60435   3.07395  -3.25745 H   0  0  0  0  0  0
  -6.12982   1.01875  -5.55756 H   0  0  0  0  0  0
   7.83441 -11.67712   3.18402 H   0  0  0  0  0  0
   7.98356 -11.68689   4.95582 H   0  0  0  0  0  0
   9.85507 -12.00837   3.91777 C   0  0  0  0  0  0
   9.94143 -13.28708   3.52667 C   0  0  0  0  0  0
  11.30378 -13.93236   3.44587 C   0  0  0  0  0  0
  11.74260 -14.01724   4.46368 H   0  0  0  0  0  0
  11.99712 -13.27892   2.86574 H   0  0  0  0  0  0
  11.16711 -15.32433   2.78511 C   0  0  0  0  0  0
  10.72749 -11.40523   4.18641 H   0  0  0  0  0  0
   9.06432 -13.88470   3.26259 H   0  0  0  0  0  0
  -8.67257   0.69156  -5.57425 H   0  0  0  0  0  0
  -8.15285   1.75890  -6.89817 H   0  0  0  0  0  0
  -9.94501   2.42915  -5.89015 C   0  0  0  0  0  0
 -11.00585   1.75165  -6.35072 C   0  0  0  0  0  0
 -12.34670   2.44456  -6.39050 C   0  0  0  0  0  0
 -12.31569   3.28245  -7.12047 H   0  0  0  0  0  0
 -12.56189   2.90844  -5.39922 H   0  0  0  0  0  0
 -13.43920   1.41937  -6.77504 C   0  0  0  0  0  0
 -10.00395   3.46475  -5.54176 H   0  0  0  0  0  0
 -10.94144   0.71727  -6.70011 H   0  0  0  0  0  0
  10.68687 -15.23227   1.78708 H   0  0  0  0  0  0
  10.48704 -15.96482   3.39513 H   0  0  0  0  0  0
  12.53000 -15.95692   2.66765 C   0  0  0  0  0  0
  12.64560 -17.12755   2.02404 C   0  0  0  0  0  0
  14.01079 -17.76059   1.90584 C   0  0  0  0  0  0
  14.45354 -17.91021   2.91430 H   0  0  0  0  0  0
  14.69648 -17.06251   1.37016 H   0  0  0  0  0  0
  13.88562 -19.10626   1.15446 C   0  0  0  0  0  0
  13.38032 -15.43885   3.12054 H   0  0  0  0  0  0
  11.78999 -17.63794   1.57277 H   0  0  0  0  0  0
 -13.44299   0.57128  -6.05689 H   0  0  0  0  0  0
 -13.20533   0.97655  -7.77208 H   0  0  0  0  0  0
 -14.77997   2.10767  -6.79960 C   0  0  0  0  0  0
 -15.87925   1.37723  -7.03977 C   0  0  0  0  0  0
 -17.21956   2.07139  -7.06720 C   0  0  0  0  0  0
 -17.20766   2.89921  -7.80890 H   0  0  0  0  0  0
 -17.40838   2.54930  -6.07716 H   0  0  0  0  0  0
 -18.32172   1.04268  -7.41026 C   0  0  0  0  0  0
 -14.80870   3.18777  -6.62915 H   0  0  0  0  0  0
 -15.84386   0.29695  -7.20723 H   0  0  0  0  0  0
  13.42583 -18.95044   0.15472 H   0  0  0  0  0  0
  13.19224 -19.78184   1.70922 H   0  0  0  0  0  0
  15.25040 -19.73318   1.02280 C   0  0  0  0  0  0
  15.37538 -20.87207   0.31946 C   0  0  0  0  0  0
  16.74229 -21.50047   0.19041 C   0  0  0  0  0  0
  17.15322 -21.73176   1.19704 H   0  0  0  0  0  0
  17.44617 -20.76619  -0.26759 H   0  0  0  0  0  0
  16.63556 -22.78162  -0.66894 C   0  0  0  0  0  0
  16.09498 -19.23946   1.51254 H   0  0  0  0  0  0
  14.52608 -21.35836  -0.16928 H   0  0  0  0  0  0
 -18.32270   0.21397  -6.66958 H   0  0  0  0  0  0
 -18.10059   0.57188  -8.39736 H   0  0  0  0  0  0
 -19.65973   1.73713  -7.43755 C   0  0  0  0  0  0
 -20.76835   1.00396  -7.64250 C   0  0  0  0  0  0
 -22.10600   1.70409  -7.67506 C   0  0  0  0  0  0
 -22.11065   2.48162  -8.46934 H   0  0  0  0  0  0
 -22.26403   2.24660  -6.71320 H   0  0  0  0  0  0
 -23.22239   0.66221  -7.91816 C   0  0  0  0  0  0
 -19.68122   2.82195  -7.29689 H   0  0  0  0  0  0
 -20.74023  -0.08104  -7.78004 H   0  0  0  0  0  0
  16.21017 -22.54320  -1.66771 H   0  0  0  0  0  0
  15.92018 -23.49341  -0.19304 H   0  0  0  0  0  0
  17.99949 -23.40792  -0.80589 C   0  0  0  0  0  0
  18.14593 -24.49614  -1.57017 C   0  0  0  0  0  0
  19.50040 -25.12732  -1.70418 C   0  0  0  0  0  0
  19.87142 -25.49778  -0.73501 H   0  0  0  0  0  0
  20.23745 -24.39722  -2.08754 H   0  0  0  0  0  0
  19.48584 -26.28959  -2.65229 C   0  0  0  0  0  0
  18.82750 -22.93699  -0.25776 H   0  0  0  0  0  0
  17.30045 -24.94469  -2.11023 H   0  0  0  0  0  0
 -23.20379  -0.11705  -7.12576 H   0  0  0  0  0  0
 -23.03289   0.12714  -8.87875 H   0  0  0  0  0  0
 -24.55843   1.35901  -7.95016 C   0  0  0  0  0  0
 -25.67329   0.63193  -8.08732 C   0  0  0  0  0  0
 -27.00465   1.32256  -8.12789 C   0  0  0  0  0  0
 -27.08286   1.99866  -8.99440 H   0  0  0  0  0  0
 -27.16060   1.92847  -7.21585 H   0  0  0  0  0  0
 -28.14015   0.34654  -8.21745 C   0  0  0  0  0  0
 -24.55733   2.45471  -7.86376 H   0  0  0  0  0  0
 -25.64595  -0.46375  -8.16882 H   0  0  0  0  0  0
  19.16602 -25.94706  -3.64747 H   0  0  0  0  0  0
  18.78510 -27.05379  -2.28488 H   0  0  0  0  0  0
  20.86294 -26.87704  -2.74445 C   0  0  0  0  0  0
  20.84838 -28.03932  -3.69255 C   0  0  0  0  0  0
  22.22548 -28.62677  -3.78471 C   0  0  0  0  0  0
  22.54537 -28.96939  -2.78958 H   0  0  0  0  0  0
  22.92629 -27.86267  -4.15216 H   0  0  0  0  0  0
  22.21481 -29.47911  -4.47999 H   0  0  0  0  0  0
  21.74680 -26.51197  -2.20083 H   0  0  0  0  0  0
  19.96452 -28.40440  -4.23617 H   0  0  0  0  0  0
 -28.12353  -0.31689  -7.34018 H   0  0  0  0  0  0
 -28.03622  -0.25393  -9.13322 H   0  0  0  0  0  0
 -29.44020   1.09388  -8.25451 C   0  0  0  0  0  0
 -30.57570   0.11786  -8.34406 C   0  0  0  0  0  0
 -31.87575   0.86520  -8.38112 C   0  0  0  0  0  0
 -31.89249   1.52861  -9.25840 H   0  0  0  0  0  0
 -31.97980   1.46565  -7.46536 H   0  0  0  0  0  0
 -32.70845   0.14945  -8.44680 H   0  0  0  0  0  0
 -29.54470   2.18840  -8.22117 H   0  0  0  0  0  0
 -30.47120  -0.97666  -8.37740 H   0  0  0  0  0  0
  1  3  1  0  0  0
  1  2  1  0  0  0
  1  5  1  0  0  0
  2  6  2  0  0  0
  4 15  1  0  0  0
  4  1  1  0  0  0
  6 12  1  0  0  0
  7  6  1  0  0  0
  7 10  1  0  0  0
  8  7  1  0  0  0
  9  7  1  0  0  0
 10 24  1  0  0  0
 10 23  1  0  0  0
 11  2  1  0  0  0
 13  4  1  0  0  0
 14  4  1  0  0  0
 15 21  1  0  0  0
 16 17  1  0  0  0
 16 15  2  0  0  0
 17 19  1  0  0  0
 18 17  1  0  0  0
 20 45  1  0  0  0
 20 43  1  0  0  0
 20 17  1  0  0  0
 22 16  1  0  0  0
 25 10  1  0  0  0
 25 26  2  0  0  0
 26 29  1  0  0  0
 27 26  1  0  0  0
 27 32  1  0  0  0
 28 25  1  0  0  0
 30 27  1  0  0  0
 31 27  1  0  0  0
 32 33  1  0  0  0
 32 34  1  0  0  0
 35 32  1  0  0  0
 35 36  2  0  0  0
 36 42  1  0  0  0
 37 36  1  0  0  0
 37 38  1  0  0  0
 37 40  1  0  0  0
 39 37  1  0  0  0
 40 54  1  0  0  0
 41 35  1  0  0  0
 44 20  1  0  0  0
 45 51  1  0  0  0
 46 47  1  0  0  0
 46 45  2  0  0  0
 47 50  1  0  0  0
 47 49  1  0  0  0
 48 47  1  0  0  0
 50 65  1  0  0  0
 50 63  1  0  0  0
 52 46  1  0  0  0
 53 40  1  0  0  0
 55 40  1  0  0  0
 55 56  2  0  0  0
 56 62  1  0  0  0
 57 56  1  0  0  0
 57 60  1  0  0  0
 57 58  1  0  0  0
 59 57  1  0  0  0
 60 74  1  0  0  0
 61 55  1  0  0  0
 64 50  1  0  0  0
 65 66  2  0  0  0
 66 67  1  0  0  0
 66 72  1  0  0  0
 67 69  1  0  0  0
 67 70  1  0  0  0
 68 67  1  0  0  0
 70 85  1  0  0  0
 70 83  1  0  0  0
 71 65  1  0  0  0
 73 60  1  0  0  0
 75 76  2  0  0  0
 75 60  1  0  0  0
 76 82  1  0  0  0
 77 76  1  0  0  0
 77 80  1  0  0  0
 77 78  1  0  0  0
 79 77  1  0  0  0
 80 94  1  0  0  0
 81 75  1  0  0  0
 84 70  1  0  0  0
 85 86  2  0  0  0
 86 87  1  0  0  0
 86 92  1  0  0  0
 87 89  1  0  0  0
 87 90  1  0  0  0
 88 87  1  0  0  0
 90105  1  0  0  0
 90103  1  0  0  0
 91 85  1  0  0  0
 93 80  1  0  0  0
 95 96  2  0  0  0
 95 80  1  0  0  0
 96102  1  0  0  0
 97100  1  0  0  0
 97 96  1  0  0  0
 97 98  1  0  0  0
 99 97  1  0  0  0
100114  1  0  0  0
101 95  1  0  0  0
104 90  1  0  0  0
105106  2  0  0  0
106107  1  0  0  0
106112  1  0  0  0
107109  1  0  0  0
107110  1  0  0  0
108107  1  0  0  0
110125  1  0  0  0
110123  1  0  0  0
111105  1  0  0  0
113100  1  0  0  0
115116  2  0  0  0
115100  1  0  0  0
116122  1  0  0  0
117120  1  0  0  0
117116  1  0  0  0
117118  1  0  0  0
119117  1  0  0  0
121115  1  0  0  0
124110  1  0  0  0
125126  2  0  0  0
126127  1  0  0  0
126132  1  0  0  0
127129  1  0  0  0
127130  1  0  0  0
128127  1  0  0  0
131125  1  0  0  0
133120  1  0  0  0
134120  1  0  0  0
135120  1  0  0  0
136135  2  0  0  0
137136  1  0  0  0
138137  1  0  0  0
139137  1  0  0  0
140137  1  0  0  0
141135  1  0  0  0
142136  1  0  0  0
143130  1  0  0  0
144130  1  0  0  0
145130  1  0  0  0
146145  2  0  0  0
147146  1  0  0  0
148147  1  0  0  0
149147  1  0  0  0
150147  1  0  0  0
151145  1  0  0  0
152146  1  0  0  0
M  END
