
 OpenBabel06181216483D

 86 85  0  0  0  0  0  0  0  0999 V2000
   -0.0616   -0.1910   -0.0800 C   0  0  0  0  0  0  0  0  0  0  0  0
    1.4240    0.0131    0.3212 C   0  0  0  0  0  0  0  0  0  0  0  0
   -1.0114    0.5446    0.9019 C   0  0  0  0  0  0  0  0  0  0  0  0
   -0.1867    0.2985   -1.0499 H   0  0  0  0  0  0  0  0  0  0  0  0
   -0.4344   -1.6809   -0.2763 C   0  0  0  0  0  0  0  0  0  0  0  0
   -0.3214   -2.5445    0.9736 C   0  0  0  0  0  0  0  0  0  0  0  0
    1.6075   -0.4754    1.2868 H   0  0  0  0  0  0  0  0  0  0  0  0
    1.6105    1.0794    0.4939 H   0  0  0  0  0  0  0  0  0  0  0  0
    2.4410   -0.5210   -0.7258 C   0  0  0  0  0  0  0  0  0  0  0  0
    2.2925    0.1546   -2.1117 C   0  0  0  0  0  0  0  0  0  0  0  0
    2.2199   -1.5822   -0.8631 H   0  0  0  0  0  0  0  0  0  0  0  0
    3.8875   -0.4444   -0.1739 C   0  0  0  0  0  0  0  0  0  0  0  0
    3.9173   -0.9087    0.8205 H   0  0  0  0  0  0  0  0  0  0  0  0
    4.1566    0.6062   -0.0127 H   0  0  0  0  0  0  0  0  0  0  0  0
    4.9607   -1.1142   -1.0768 C   0  0  0  0  0  0  0  0  0  0  0  0
    2.5428    1.6566   -2.1289 C   0  0  0  0  0  0  0  0  0  0  0  0
    1.2921   -0.0373   -2.5143 H   0  0  0  0  0  0  0  0  0  0  0  0
    2.9680   -0.3195   -2.8318 H   0  0  0  0  0  0  0  0  0  0  0  0
    3.5586    1.9009   -1.8052 H   0  0  0  0  0  0  0  0  0  0  0  0
    1.8346    2.1919   -1.4898 H   0  0  0  0  0  0  0  0  0  0  0  0
    2.4209    2.0420   -3.1464 H   0  0  0  0  0  0  0  0  0  0  0  0
    4.9272   -0.6030   -2.0445 H   0  0  0  0  0  0  0  0  0  0  0  0
    4.6835   -2.6107   -1.3510 C   0  0  0  0  0  0  0  0  0  0  0  0
    6.3717   -0.8554   -0.4954 C   0  0  0  0  0  0  0  0  0  0  0  0
    6.4443   -1.3175    0.4978 H   0  0  0  0  0  0  0  0  0  0  0  0
    6.4887    0.2226   -0.3251 H   0  0  0  0  0  0  0  0  0  0  0  0
    7.5515   -1.3526   -1.3639 C   0  0  0  0  0  0  0  0  0  0  0  0
    3.7407   -2.7165   -1.8995 H   0  0  0  0  0  0  0  0  0  0  0  0
    4.6255   -3.4956   -0.1131 C   0  0  0  0  0  0  0  0  0  0  0  0
    5.4438   -3.0119   -2.0296 H   0  0  0  0  0  0  0  0  0  0  0  0
    3.8149   -3.1987    0.5582 H   0  0  0  0  0  0  0  0  0  0  0  0
    5.5664   -3.4723    0.4434 H   0  0  0  0  0  0  0  0  0  0  0  0
    4.4415   -4.5341   -0.4081 H   0  0  0  0  0  0  0  0  0  0  0  0
   -0.9865   -2.1948    1.7681 H   0  0  0  0  0  0  0  0  0  0  0  0
    0.7018   -2.5664    1.3588 H   0  0  0  0  0  0  0  0  0  0  0  0
   -0.6052   -3.5758    0.7389 H   0  0  0  0  0  0  0  0  0  0  0  0
    0.1886   -2.1215   -1.0616 H   0  0  0  0  0  0  0  0  0  0  0  0
   -1.4549   -1.7623   -0.6646 H   0  0  0  0  0  0  0  0  0  0  0  0
   -0.6701    1.5785    1.0296 H   0  0  0  0  0  0  0  0  0  0  0  0
   -0.9297    0.0853    1.8955 H   0  0  0  0  0  0  0  0  0  0  0  0
   -2.5022    0.5501    0.4612 C   0  0  0  0  0  0  0  0  0  0  0  0
   -2.8057   -0.4955    0.3642 H   0  0  0  0  0  0  0  0  0  0  0  0
   -2.7229    1.2154   -0.9198 C   0  0  0  0  0  0  0  0  0  0  0  0
   -3.3931    1.1632    1.5707 C   0  0  0  0  0  0  0  0  0  0  0  0
   -2.1664    0.6697   -1.6893 H   0  0  0  0  0  0  0  0  0  0  0  0
   -2.3412    2.6877   -0.9959 C   0  0  0  0  0  0  0  0  0  0  0  0
   -3.7712    1.1112   -1.2201 H   0  0  0  0  0  0  0  0  0  0  0  0
   -1.2791    2.8415   -0.7842 H   0  0  0  0  0  0  0  0  0  0  0  0
   -2.9272    3.2935   -0.2989 H   0  0  0  0  0  0  0  0  0  0  0  0
   -2.5328    3.0696   -2.0040 H   0  0  0  0  0  0  0  0  0  0  0  0
   -3.1125    2.2131    1.7181 H   0  0  0  0  0  0  0  0  0  0  0  0
   -3.1703    0.6661    2.5239 H   0  0  0  0  0  0  0  0  0  0  0  0
   -4.9204    1.0772    1.3014 C   0  0  0  0  0  0  0  0  0  0  0  0
   -5.4290   -0.3683    1.0969 C   0  0  0  0  0  0  0  0  0  0  0  0
   -5.1136    1.6159    0.3673 H   0  0  0  0  0  0  0  0  0  0  0  0
   -5.6853    1.8386    2.4077 C   0  0  0  0  0  0  0  0  0  0  0  0
   -5.1927   -1.3104    2.2695 C   0  0  0  0  0  0  0  0  0  0  0  0
   -4.9622   -0.7995    0.2039 H   0  0  0  0  0  0  0  0  0  0  0  0
   -6.5012   -0.3564    0.8725 H   0  0  0  0  0  0  0  0  0  0  0  0
   -5.6835   -0.9527    3.1787 H   0  0  0  0  0  0  0  0  0  0  0  0
   -4.1265   -1.4395    2.4753 H   0  0  0  0  0  0  0  0  0  0  0  0
   -5.6031   -2.2992    2.0389 H   0  0  0  0  0  0  0  0  0  0  0  0
    7.5421   -0.8336   -2.8175 C   0  0  0  0  0  0  0  0  0  0  0  0
    7.5009   -2.4473   -1.4161 H   0  0  0  0  0  0  0  0  0  0  0  0
    8.8791   -1.0231   -0.6721 C   0  0  0  0  0  0  0  0  0  0  0  0
    8.9353   -1.5157    0.3046 H   0  0  0  0  0  0  0  0  0  0  0  0
    8.9980    0.0526   -0.5109 H   0  0  0  0  0  0  0  0  0  0  0  0
    9.7269   -1.3755   -1.2694 H   0  0  0  0  0  0  0  0  0  0  0  0
    7.5391    0.6817   -2.9681 C   0  0  0  0  0  0  0  0  0  0  0  0
    6.6731   -1.2397   -3.3481 H   0  0  0  0  0  0  0  0  0  0  0  0
    8.4192   -1.2322   -3.3431 H   0  0  0  0  0  0  0  0  0  0  0  0
    8.4273    1.1322   -2.5167 H   0  0  0  0  0  0  0  0  0  0  0  0
    6.6518    1.1323   -2.5143 H   0  0  0  0  0  0  0  0  0  0  0  0
    7.5360    0.9488   -4.0301 H   0  0  0  0  0  0  0  0  0  0  0  0
   -5.2830    2.8569    2.4798 H   0  0  0  0  0  0  0  0  0  0  0  0
   -5.4868    1.3747    3.3819 H   0  0  0  0  0  0  0  0  0  0  0  0
   -7.2069    1.9331    2.2190 C   0  0  0  0  0  0  0  0  0  0  0  0
   -7.6540    0.9418    2.3580 H   0  0  0  0  0  0  0  0  0  0  0  0
   -7.6814    2.4984    0.8761 C   0  0  0  0  0  0  0  0  0  0  0  0
   -7.6123    2.5571    3.0255 H   0  0  0  0  0  0  0  0  0  0  0  0
   -7.3920    1.8329    0.0557 H   0  0  0  0  0  0  0  0  0  0  0  0
   -7.1737    3.9030    0.5904 C   0  0  0  0  0  0  0  0  0  0  0  0
   -8.7782    2.5185    0.8791 H   0  0  0  0  0  0  0  0  0  0  0  0
   -6.0857    3.9232    0.4776 H   0  0  0  0  0  0  0  0  0  0  0  0
   -7.4519    4.5916    1.3940 H   0  0  0  0  0  0  0  0  0  0  0  0
   -7.6092    4.2764   -0.3422 H   0  0  0  0  0  0  0  0  0  0  0  0
  1  2  1  0  0  0  0
  1  3  1  0  0  0  0
  1  4  1  0  0  0  0
  1  5  1  0  0  0  0
  6  5  1  0  0  0  0
  7  2  1  0  0  0  0
  8  2  1  0  0  0  0
  9  2  1  0  0  0  0
 10  9  1  0  0  0  0
 11  9  1  0  0  0  0
 12  9  1  0  0  0  0
 13 12  1  0  0  0  0
 14 12  1  0  0  0  0
 15 12  1  0  0  0  0
 16 10  1  0  0  0  0
 17 10  1  0  0  0  0
 18 10  1  0  0  0  0
 19 16  1  0  0  0  0
 20 16  1  0  0  0  0
 21 16  1  0  0  0  0
 22 15  1  0  0  0  0
 23 15  1  0  0  0  0
 24 15  1  0  0  0  0
 25 24  1  0  0  0  0
 26 24  1  0  0  0  0
 27 24  1  0  0  0  0
 28 23  1  0  0  0  0
 29 23  1  0  0  0  0
 30 23  1  0  0  0  0
 31 29  1  0  0  0  0
 32 29  1  0  0  0  0
 33 29  1  0  0  0  0
 34  6  1  0  0  0  0
 35  6  1  0  0  0  0
 36  6  1  0  0  0  0
 37  5  1  0  0  0  0
 38  5  1  0  0  0  0
 39  3  1  0  0  0  0
 40  3  1  0  0  0  0
 41  3  1  0  0  0  0
 42 41  1  0  0  0  0
 43 41  1  0  0  0  0
 44 41  1  0  0  0  0
 45 43  1  0  0  0  0
 46 43  1  0  0  0  0
 47 43  1  0  0  0  0
 48 46  1  0  0  0  0
 49 46  1  0  0  0  0
 50 46  1  0  0  0  0
 51 44  1  0  0  0  0
 52 44  1  0  0  0  0
 53 44  1  0  0  0  0
 54 53  1  0  0  0  0
 55 53  1  0  0  0  0
 56 53  1  0  0  0  0
 57 54  1  0  0  0  0
 58 54  1  0  0  0  0
 59 54  1  0  0  0  0
 60 57  1  0  0  0  0
 61 57  1  0  0  0  0
 62 57  1  0  0  0  0
 63 27  1  0  0  0  0
 64 27  1  0  0  0  0
 65 27  1  0  0  0  0
 66 65  1  0  0  0  0
 67 65  1  0  0  0  0
 68 65  1  0  0  0  0
 69 63  1  0  0  0  0
 70 63  1  0  0  0  0
 71 63  1  0  0  0  0
 72 69  1  0  0  0  0
 73 69  1  0  0  0  0
 74 69  1  0  0  0  0
 75 56  1  0  0  0  0
 76 56  1  0  0  0  0
 77 56  1  0  0  0  0
 78 77  1  0  0  0  0
 79 77  1  0  0  0  0
 80 77  1  0  0  0  0
 81 79  1  0  0  0  0
 82 79  1  0  0  0  0
 83 79  1  0  0  0  0
 84 82  1  0  0  0  0
 85 82  1  0  0  0  0
 86 82  1  0  0  0  0
M  END
