
 OpenBabel10311213573D

302301  0  0  0  0  0  0  0  0999 V2000
   -0.0125   -0.4056    0.2571 C   0  0  0  0  0  0  0  0  0  0  0  0
   -1.4358   -0.9012   -0.3910 C   0  0  0  0  0  0  0  0  0  0  0  0
   -1.9135    0.0543   -1.6235 C   0  0  0  0  0  0  0  0  0  0  0  0
    0.1396   -0.2761    1.8471 C   0  0  0  0  0  0  0  0  0  0  0  0
   -3.4709    0.1766   -1.9940 C   0  0  0  0  0  0  0  0  0  0  0  0
    1.6353   -0.0195    2.3431 C   0  0  0  0  0  0  0  0  0  0  0  0
   -3.7553    0.8892   -3.4424 C   0  0  0  0  0  0  0  0  0  0  0  0
    1.9249    0.3059    3.9222 C   0  0  0  0  0  0  0  0  0  0  0  0
   -5.2725    0.8913   -4.0542 C   0  0  0  0  0  0  0  0  0  0  0  0
    3.1232   -0.6245    4.4779 C   0  0  0  0  0  0  0  0  0  0  0  0
   -5.4507    1.7973   -5.3681 C   0  0  0  0  0  0  0  0  0  0  0  0
    3.3021   -0.9115    6.0406 C   0  0  0  0  0  0  0  0  0  0  0  0
   -6.9539    2.1741   -5.8720 C   0  0  0  0  0  0  0  0  0  0  0  0
    4.7486   -1.5674    6.3511 C   0  0  0  0  0  0  0  0  0  0  0  0
   -6.9719    2.4857   -7.4472 C   0  0  0  0  0  0  0  0  0  0  0  0
    5.2556   -1.7782    7.8752 C   0  0  0  0  0  0  0  0  0  0  0  0
   -8.3605    2.6074   -8.2712 C   0  0  0  0  0  0  0  0  0  0  0  0
    6.6181   -2.6063    7.9036 C   0  0  0  0  0  0  0  0  0  0  0  0
   -8.0429    3.1620   -9.7253 C   0  0  0  0  0  0  0  0  0  0  0  0
    7.1711   -3.2664    9.2653 C   0  0  0  0  0  0  0  0  0  0  0  0
    0.7833   -1.0804   -0.0870 H   0  0  0  0  0  0  0  0  0  0  0  0
    0.2438    0.5676   -0.1826 H   0  0  0  0  0  0  0  0  0  0  0  0
   -1.1250   -2.2900   -1.0273 C   0  0  0  0  0  0  0  0  0  0  0  0
   -2.5265   -1.1175    0.6965 C   0  0  0  0  0  0  0  0  0  0  0  0
   -1.5495    1.0710   -1.4211 H   0  0  0  0  0  0  0  0  0  0  0  0
   -1.3780   -0.2637   -2.5282 H   0  0  0  0  0  0  0  0  0  0  0  0
   -0.7226    0.9528    2.2380 C   0  0  0  0  0  0  0  0  0  0  0  0
   -0.2720   -1.6238    2.4951 C   0  0  0  0  0  0  0  0  0  0  0  0
   -4.1098   -1.2262   -2.0606 C   0  0  0  0  0  0  0  0  0  0  0  0
   -4.0695    1.0800   -0.8802 C   0  0  0  0  0  0  0  0  0  0  0  0
    2.2289   -0.8998    2.0601 H   0  0  0  0  0  0  0  0  0  0  0  0
    2.0519    0.7944    1.7342 H   0  0  0  0  0  0  0  0  0  0  0  0
   -3.4175    1.9322   -3.3753 H   0  0  0  0  0  0  0  0  0  0  0  0
   -3.0988    0.4141   -4.1840 H   0  0  0  0  0  0  0  0  0  0  0  0
    2.4331    1.7767    3.9633 C   0  0  0  0  0  0  0  0  0  0  0  0
    0.6471    0.2500    4.8004 C   0  0  0  0  0  0  0  0  0  0  0  0
   -5.6117   -0.5530   -4.5206 C   0  0  0  0  0  0  0  0  0  0  0  0
   -6.2091    1.4058   -2.9395 C   0  0  0  0  0  0  0  0  0  0  0  0
    3.0361   -1.6060    3.9904 H   0  0  0  0  0  0  0  0  0  0  0  0
    4.0690   -0.2115    4.1020 H   0  0  0  0  0  0  0  0  0  0  0  0
   -4.8956    2.7337   -5.2207 H   0  0  0  0  0  0  0  0  0  0  0  0
   -4.9314    1.2896   -6.1928 H   0  0  0  0  0  0  0  0  0  0  0  0
    3.1999    0.3881    6.8588 C   0  0  0  0  0  0  0  0  0  0  0  0
    2.1939   -1.9321    6.4166 C   0  0  0  0  0  0  0  0  0  0  0  0
   -7.9784    1.0472   -5.6029 C   0  0  0  0  0  0  0  0  0  0  0  0
   -7.3571    3.4736   -5.1172 C   0  0  0  0  0  0  0  0  0  0  0  0
    4.7760   -2.5462    5.8522 H   0  0  0  0  0  0  0  0  0  0  0  0
    5.5078   -0.9598    5.8390 H   0  0  0  0  0  0  0  0  0  0  0  0
   -6.3778    1.7057   -7.9441 H   0  0  0  0  0  0  0  0  0  0  0  0
   -6.4051    3.4143   -7.6019 H   0  0  0  0  0  0  0  0  0  0  0  0
    5.5964   -0.3940    8.4960 C   0  0  0  0  0  0  0  0  0  0  0  0
    4.1440   -2.5133    8.6500 C   0  0  0  0  0  0  0  0  0  0  0  0
   -8.9689    1.1914   -8.4425 C   0  0  0  0  0  0  0  0  0  0  0  0
   -9.3375    3.5363   -7.5397 C   0  0  0  0  0  0  0  0  0  0  0  0
    6.5451   -3.4050    7.1531 H   0  0  0  0  0  0  0  0  0  0  0  0
    7.3952   -1.9327    7.5162 H   0  0  0  0  0  0  0  0  0  0  0  0
   -7.2987    3.9642   -9.6196 H   0  0  0  0  0  0  0  0  0  0  0  0
   -7.5072    2.3511  -10.2396 H   0  0  0  0  0  0  0  0  0  0  0  0
   -9.1662    3.7196  -10.7312 C   0  0  0  0  0  0  0  0  0  0  0  0
    6.7459   -2.5059   10.5462 C   0  0  0  0  0  0  0  0  0  0  0  0
    6.5477   -4.6919    9.3467 C   0  0  0  0  0  0  0  0  0  0  0  0
    8.7742   -3.4842    9.1473 C   0  0  0  0  0  0  0  0  0  0  0  0
   -8.1849    0.4303   -8.5224 H   0  0  0  0  0  0  0  0  0  0  0  0
   -9.5617    1.0760   -9.3463 H   0  0  0  0  0  0  0  0  0  0  0  0
   -9.6411    0.9199   -7.6254 H   0  0  0  0  0  0  0  0  0  0  0  0
   -8.9199    4.5434   -7.4408 H   0  0  0  0  0  0  0  0  0  0  0  0
   -9.5930    3.1826   -6.5424 H   0  0  0  0  0  0  0  0  0  0  0  0
  -10.3026    3.6139   -8.0390 H   0  0  0  0  0  0  0  0  0  0  0  0
   -7.9454    0.5948   -4.6166 H   0  0  0  0  0  0  0  0  0  0  0  0
   -7.8440    0.2207   -6.3053 H   0  0  0  0  0  0  0  0  0  0  0  0
   -9.0071    1.4011   -5.6823 H   0  0  0  0  0  0  0  0  0  0  0  0
   -6.7486    3.6508   -4.2262 H   0  0  0  0  0  0  0  0  0  0  0  0
   -8.3971    3.4554   -4.7793 H   0  0  0  0  0  0  0  0  0  0  0  0
   -7.2184    4.3640   -5.7399 H   0  0  0  0  0  0  0  0  0  0  0  0
   -4.7092   -1.1501   -4.6763 H   0  0  0  0  0  0  0  0  0  0  0  0
   -6.0903   -0.5906   -5.5004 H   0  0  0  0  0  0  0  0  0  0  0  0
   -6.2803   -1.0733   -3.8302 H   0  0  0  0  0  0  0  0  0  0  0  0
   -5.8204    2.3369   -2.5160 H   0  0  0  0  0  0  0  0  0  0  0  0
   -6.3419    0.6702   -2.1468 H   0  0  0  0  0  0  0  0  0  0  0  0
   -7.2232    1.6508   -3.2386 H   0  0  0  0  0  0  0  0  0  0  0  0
   -3.8938   -1.9101   -1.2494 H   0  0  0  0  0  0  0  0  0  0  0  0
   -3.7594   -1.7596   -2.9486 H   0  0  0  0  0  0  0  0  0  0  0  0
   -5.1979   -1.1737   -2.0586 H   0  0  0  0  0  0  0  0  0  0  0  0
   -3.4358    1.1459    0.0072 H   0  0  0  0  0  0  0  0  0  0  0  0
   -5.0449    0.7341   -0.5318 H   0  0  0  0  0  0  0  0  0  0  0  0
   -4.1503    2.1206   -1.2110 H   0  0  0  0  0  0  0  0  0  0  0  0
   -0.7732   -3.0078   -0.2801 H   0  0  0  0  0  0  0  0  0  0  0  0
   -1.9930   -2.7415   -1.5098 H   0  0  0  0  0  0  0  0  0  0  0  0
   -0.3412   -2.2056   -1.7888 H   0  0  0  0  0  0  0  0  0  0  0  0
   -2.5594   -0.3305    1.4427 H   0  0  0  0  0  0  0  0  0  0  0  0
   -2.4060   -2.0758    1.2077 H   0  0  0  0  0  0  0  0  0  0  0  0
   -3.5534   -1.1415    0.3536 H   0  0  0  0  0  0  0  0  0  0  0  0
   -0.3492   -2.4273    1.7601 H   0  0  0  0  0  0  0  0  0  0  0  0
    0.4797   -2.0093    3.1920 H   0  0  0  0  0  0  0  0  0  0  0  0
   -1.2164   -1.5544    3.0430 H   0  0  0  0  0  0  0  0  0  0  0  0
   -1.4323    0.7285    3.0395 H   0  0  0  0  0  0  0  0  0  0  0  0
   -1.3034    1.3467    1.3965 H   0  0  0  0  0  0  0  0  0  0  0  0
   -0.1114    1.8060    2.5414 H   0  0  0  0  0  0  0  0  0  0  0  0
    0.0750   -0.6668    4.6897 H   0  0  0  0  0  0  0  0  0  0  0  0
   -0.0141    1.0971    4.6125 H   0  0  0  0  0  0  0  0  0  0  0  0
    0.8215    0.3102    5.8691 H   0  0  0  0  0  0  0  0  0  0  0  0
    1.7956    2.4388    3.3693 H   0  0  0  0  0  0  0  0  0  0  0  0
    3.4479    1.8620    3.5610 H   0  0  0  0  0  0  0  0  0  0  0  0
    2.4407    2.1914    4.9735 H   0  0  0  0  0  0  0  0  0  0  0  0
    1.4388   -2.0489    5.6365 H   0  0  0  0  0  0  0  0  0  0  0  0
    1.6610   -1.6530    7.3300 H   0  0  0  0  0  0  0  0  0  0  0  0
    2.5934   -2.9435    6.5333 H   0  0  0  0  0  0  0  0  0  0  0  0
    2.3212    0.9955    6.6804 H   0  0  0  0  0  0  0  0  0  0  0  0
    4.0531    1.0420    6.6545 H   0  0  0  0  0  0  0  0  0  0  0  0
    3.1433    0.1831    7.9280 H   0  0  0  0  0  0  0  0  0  0  0  0
    4.3768   -2.7856    9.6752 H   0  0  0  0  0  0  0  0  0  0  0  0
    3.2477   -1.9005    8.7486 H   0  0  0  0  0  0  0  0  0  0  0  0
    3.8867   -3.4527    8.1509 H   0  0  0  0  0  0  0  0  0  0  0  0
    4.7968   -0.0129    9.1364 H   0  0  0  0  0  0  0  0  0  0  0  0
    5.8230    0.3477    7.7239 H   0  0  0  0  0  0  0  0  0  0  0  0
    6.4980   -0.4097    9.1148 H   0  0  0  0  0  0  0  0  0  0  0  0
    6.7847   -5.2814    8.4538 H   0  0  0  0  0  0  0  0  0  0  0  0
    5.4605   -4.6690    9.4411 H   0  0  0  0  0  0  0  0  0  0  0  0
    6.9187   -5.2505   10.2096 H   0  0  0  0  0  0  0  0  0  0  0  0
    7.4705   -1.7727   10.8858 H   0  0  0  0  0  0  0  0  0  0  0  0
    5.8335   -1.9261   10.4708 H   0  0  0  0  0  0  0  0  0  0  0  0
    6.5319   -3.1959   11.3684 H   0  0  0  0  0  0  0  0  0  0  0  0
    9.1620   -2.7833    8.3958 H   0  0  0  0  0  0  0  0  0  0  0  0
    8.9385   -4.4749    8.7013 H   0  0  0  0  0  0  0  0  0  0  0  0
    9.7402   -3.3665   10.4139 C   0  0  0  0  0  0  0  0  0  0  0  0
    9.1108   -4.1122   11.6106 C   0  0  0  0  0  0  0  0  0  0  0  0
    9.9228   -1.8467   10.6966 C   0  0  0  0  0  0  0  0  0  0  0  0
   11.1981   -3.9756   10.0776 C   0  0  0  0  0  0  0  0  0  0  0  0
    8.7354   -5.0933   11.3097 H   0  0  0  0  0  0  0  0  0  0  0  0
    8.3134   -3.5522   12.0907 H   0  0  0  0  0  0  0  0  0  0  0  0
    9.7858   -4.2962   12.4410 H   0  0  0  0  0  0  0  0  0  0  0  0
    9.7801   -1.6010   11.7535 H   0  0  0  0  0  0  0  0  0  0  0  0
    9.2339   -1.2223   10.1192 H   0  0  0  0  0  0  0  0  0  0  0  0
   10.9100   -1.4862   10.3913 H   0  0  0  0  0  0  0  0  0  0  0  0
   -9.5136    5.1730  -10.3301 C   0  0  0  0  0  0  0  0  0  0  0  0
  -10.4523    2.8867  -10.7521 C   0  0  0  0  0  0  0  0  0  0  0  0
   -8.5067    3.7428  -12.1700 C   0  0  0  0  0  0  0  0  0  0  0  0
   -7.9335    2.8110  -12.2812 H   0  0  0  0  0  0  0  0  0  0  0  0
   -7.7454    4.5366  -12.1487 H   0  0  0  0  0  0  0  0  0  0  0  0
   -9.3147    3.8964  -13.5108 C   0  0  0  0  0  0  0  0  0  0  0  0
  -10.3009    5.0715  -13.5360 C   0  0  0  0  0  0  0  0  0  0  0  0
  -10.0605    2.6029  -13.9006 C   0  0  0  0  0  0  0  0  0  0  0  0
   -8.2743    4.1556  -14.6306 C   0  0  0  0  0  0  0  0  0  0  0  0
   -7.5478    3.3378  -14.6928 H   0  0  0  0  0  0  0  0  0  0  0  0
   -7.7231    5.0854  -14.4508 H   0  0  0  0  0  0  0  0  0  0  0  0
   -8.7567    4.2452  -15.6113 H   0  0  0  0  0  0  0  0  0  0  0  0
  -11.2341    3.3642  -11.3480 H   0  0  0  0  0  0  0  0  0  0  0  0
  -10.9019    2.7597   -9.7672 H   0  0  0  0  0  0  0  0  0  0  0  0
  -10.2722    1.8915  -11.1699 H   0  0  0  0  0  0  0  0  0  0  0  0
   -8.6162    5.8002  -10.2957 H   0  0  0  0  0  0  0  0  0  0  0  0
   -9.9980    5.2391   -9.3559 H   0  0  0  0  0  0  0  0  0  0  0  0
  -10.2112    5.6416  -11.0251 H   0  0  0  0  0  0  0  0  0  0  0  0
  -10.9571    2.4338  -13.3009 H   0  0  0  0  0  0  0  0  0  0  0  0
   -9.4135    1.7245  -13.8020 H   0  0  0  0  0  0  0  0  0  0  0  0
  -10.3993    2.6435  -14.9431 H   0  0  0  0  0  0  0  0  0  0  0  0
   -9.8076    6.0105  -13.2645 H   0  0  0  0  0  0  0  0  0  0  0  0
  -11.1506    4.9160  -12.8667 H   0  0  0  0  0  0  0  0  0  0  0  0
  -10.7243    5.2064  -14.5390 H   0  0  0  0  0  0  0  0  0  0  0  0
   11.6808   -3.3000    9.3585 H   0  0  0  0  0  0  0  0  0  0  0  0
   11.0589   -4.9182    9.5309 H   0  0  0  0  0  0  0  0  0  0  0  0
   12.2343   -4.2550   11.2731 C   0  0  0  0  0  0  0  0  0  0  0  0
   11.8273   -5.6178   11.9120 C   0  0  0  0  0  0  0  0  0  0  0  0
   12.1506   -3.0937   12.2978 C   0  0  0  0  0  0  0  0  0  0  0  0
   13.7536   -4.4168   10.7242 C   0  0  0  0  0  0  0  0  0  0  0  0
   11.1846   -3.0032   12.7899 H   0  0  0  0  0  0  0  0  0  0  0  0
   12.3592   -2.1352   11.8167 H   0  0  0  0  0  0  0  0  0  0  0  0
   12.8391   -3.1729   13.1348 H   0  0  0  0  0  0  0  0  0  0  0  0
   12.5364   -6.4156   11.6706 H   0  0  0  0  0  0  0  0  0  0  0  0
   10.8718   -5.9958   11.5385 H   0  0  0  0  0  0  0  0  0  0  0  0
   11.7413   -5.5561   13.0014 H   0  0  0  0  0  0  0  0  0  0  0  0
   13.9234   -3.6489    9.9574 H   0  0  0  0  0  0  0  0  0  0  0  0
   13.8205   -5.3739   10.1901 H   0  0  0  0  0  0  0  0  0  0  0  0
   14.9707   -4.3400   11.7749 C   0  0  0  0  0  0  0  0  0  0  0  0
   14.5899   -5.1680   13.0281 C   0  0  0  0  0  0  0  0  0  0  0  0
   15.1702   -2.8279   12.0947 C   0  0  0  0  0  0  0  0  0  0  0  0
   16.3831   -4.8974   11.1767 C   0  0  0  0  0  0  0  0  0  0  0  0
   15.1386   -2.6202   13.1685 H   0  0  0  0  0  0  0  0  0  0  0  0
   14.4257   -2.1870   11.6191 H   0  0  0  0  0  0  0  0  0  0  0  0
   16.1079   -2.4381   11.6902 H   0  0  0  0  0  0  0  0  0  0  0  0
   14.4276   -6.2163   12.7617 H   0  0  0  0  0  0  0  0  0  0  0  0
   13.6969   -4.8265   13.5415 H   0  0  0  0  0  0  0  0  0  0  0  0
   15.3266   -5.1503   13.8245 H   0  0  0  0  0  0  0  0  0  0  0  0
   16.7474   -4.1733   10.4358 H   0  0  0  0  0  0  0  0  0  0  0  0
   16.1772   -5.8147   10.6097 H   0  0  0  0  0  0  0  0  0  0  0  0
   17.5898   -5.2032   12.2186 C   0  0  0  0  0  0  0  0  0  0  0  0
   17.2425   -6.5592   12.9095 C   0  0  0  0  0  0  0  0  0  0  0  0
   17.6503   -4.0069   13.2122 C   0  0  0  0  0  0  0  0  0  0  0  0
   19.0592   -5.4219   11.5309 C   0  0  0  0  0  0  0  0  0  0  0  0
   19.1545   -4.7195   10.6924 H   0  0  0  0  0  0  0  0  0  0  0  0
   19.0889   -6.4206   11.0763 H   0  0  0  0  0  0  0  0  0  0  0  0
   20.3567   -5.2578   12.4963 C   0  0  0  0  0  0  0  0  0  0  0  0
   20.0461   -5.9698   13.8431 C   0  0  0  0  0  0  0  0  0  0  0  0
   20.5624   -3.7154   12.6252 C   0  0  0  0  0  0  0  0  0  0  0  0
   21.7806   -5.8753   11.9391 C   0  0  0  0  0  0  0  0  0  0  0  0
   18.0418   -7.2996   12.8170 H   0  0  0  0  0  0  0  0  0  0  0  0
   16.3869   -7.0567   12.4439 H   0  0  0  0  0  0  0  0  0  0  0  0
   17.0312   -6.4433   13.9766 H   0  0  0  0  0  0  0  0  0  0  0  0
   16.7643   -3.8958   13.8299 H   0  0  0  0  0  0  0  0  0  0  0  0
   17.7981   -3.0694   12.6712 H   0  0  0  0  0  0  0  0  0  0  0  0
   18.4371   -4.0348   13.9574 H   0  0  0  0  0  0  0  0  0  0  0  0
   20.5464   -3.3731   13.6638 H   0  0  0  0  0  0  0  0  0  0  0  0
   19.8094   -3.1372   12.0840 H   0  0  0  0  0  0  0  0  0  0  0  0
   21.4935   -3.3799   12.1610 H   0  0  0  0  0  0  0  0  0  0  0  0
   19.9998   -7.0519   13.6947 H   0  0  0  0  0  0  0  0  0  0  0  0
   19.1098   -5.7166   14.3245 H   0  0  0  0  0  0  0  0  0  0  0  0
   20.7584   -5.7594   14.6340 H   0  0  0  0  0  0  0  0  0  0  0  0
   22.1432   -5.2349   11.1244 H   0  0  0  0  0  0  0  0  0  0  0  0
   21.5745   -6.8507   11.4811 H   0  0  0  0  0  0  0  0  0  0  0  0
   22.9944   -6.0533   13.0329 C   0  0  0  0  0  0  0  0  0  0  0  0
   22.6341   -7.3244   13.8658 C   0  0  0  0  0  0  0  0  0  0  0  0
   23.0601   -4.7175   13.8254 C   0  0  0  0  0  0  0  0  0  0  0  0
   24.4924   -6.3561   12.4738 C   0  0  0  0  0  0  0  0  0  0  0  0
   24.6640   -5.7369   11.5847 H   0  0  0  0  0  0  0  0  0  0  0  0
   24.5312   -7.3935   12.1144 H   0  0  0  0  0  0  0  0  0  0  0  0
   25.7319   -6.1311   13.5315 C   0  0  0  0  0  0  0  0  0  0  0  0
   25.2931   -6.5825   14.9513 C   0  0  0  0  0  0  0  0  0  0  0  0
   26.0730   -4.6071   13.4678 C   0  0  0  0  0  0  0  0  0  0  0  0
   27.1145   -6.9259   13.1827 C   0  0  0  0  0  0  0  0  0  0  0  0
   23.4539   -8.0451   13.9260 H   0  0  0  0  0  0  0  0  0  0  0  0
   21.8461   -7.9170   13.3919 H   0  0  0  0  0  0  0  0  0  0  0  0
   22.3358   -7.0930   14.8913 H   0  0  0  0  0  0  0  0  0  0  0  0
   22.1653   -4.4929   14.3980 H   0  0  0  0  0  0  0  0  0  0  0  0
   23.2525   -3.8881   13.1388 H   0  0  0  0  0  0  0  0  0  0  0  0
   23.8236   -4.6279   14.5844 H   0  0  0  0  0  0  0  0  0  0  0  0
   25.8825   -4.0987   14.4185 H   0  0  0  0  0  0  0  0  0  0  0  0
   25.5014   -4.0800   12.6977 H   0  0  0  0  0  0  0  0  0  0  0  0
   27.1208   -4.4229   13.2066 H   0  0  0  0  0  0  0  0  0  0  0  0
   25.2127   -7.6719   14.9878 H   0  0  0  0  0  0  0  0  0  0  0  0
   24.3350   -6.2307   15.3143 H   0  0  0  0  0  0  0  0  0  0  0  0
   25.9602   -6.2420   15.7401 H   0  0  0  0  0  0  0  0  0  0  0  0
   27.6319   -6.3935   12.3739 H   0  0  0  0  0  0  0  0  0  0  0  0
   26.8392   -7.9001   12.7574 H   0  0  0  0  0  0  0  0  0  0  0  0
   28.1950   -7.1983   14.3868 C   0  0  0  0  0  0  0  0  0  0  0  0
   27.6168   -8.3479   15.2598 C   0  0  0  0  0  0  0  0  0  0  0  0
   28.4051   -5.8898   15.1994 C   0  0  0  0  0  0  0  0  0  0  0  0
   29.6637   -7.6450   13.8619 C   0  0  0  0  0  0  0  0  0  0  0  0
   30.1157   -6.7713   13.3733 H   0  0  0  0  0  0  0  0  0  0  0  0
   29.5308   -8.3824   13.0592 H   0  0  0  0  0  0  0  0  0  0  0  0
   30.7521   -8.2324   14.9309 C   0  0  0  0  0  0  0  0  0  0  0  0
   30.4894   -9.7639   15.0653 C   0  0  0  0  0  0  0  0  0  0  0  0
   30.5860   -7.5118   16.2909 C   0  0  0  0  0  0  0  0  0  0  0  0
   32.2746   -8.0733   14.4303 C   0  0  0  0  0  0  0  0  0  0  0  0
   27.5667   -5.2073   15.2095 H   0  0  0  0  0  0  0  0  0  0  0  0
   29.2372   -5.2989   14.8014 H   0  0  0  0  0  0  0  0  0  0  0  0
   28.5674   -6.0751   16.2621 H   0  0  0  0  0  0  0  0  0  0  0  0
   27.0563   -9.0668   14.6523 H   0  0  0  0  0  0  0  0  0  0  0  0
   26.9827   -7.9920   16.0725 H   0  0  0  0  0  0  0  0  0  0  0  0
   28.3557   -8.9386   15.7862 H   0  0  0  0  0  0  0  0  0  0  0  0
   29.6433   -7.7430   16.7857 H   0  0  0  0  0  0  0  0  0  0  0  0
   30.6736   -6.4303   16.1626 H   0  0  0  0  0  0  0  0  0  0  0  0
   31.3160   -7.7592   17.0545 H   0  0  0  0  0  0  0  0  0  0  0  0
   31.3445  -10.3665   14.7430 H   0  0  0  0  0  0  0  0  0  0  0  0
   29.6564  -10.1012   14.4394 H   0  0  0  0  0  0  0  0  0  0  0  0
   30.2593  -10.0527   16.0963 H   0  0  0  0  0  0  0  0  0  0  0  0
   32.3739   -7.0945   13.9412 H   0  0  0  0  0  0  0  0  0  0  0  0
   32.4487   -8.8058   13.6306 H   0  0  0  0  0  0  0  0  0  0  0  0
   33.4689   -8.2037   15.5122 C   0  0  0  0  0  0  0  0  0  0  0  0
   33.2046   -9.3614   16.5000 C   0  0  0  0  0  0  0  0  0  0  0  0
   33.5749   -6.8277   16.2329 C   0  0  0  0  0  0  0  0  0  0  0  0
   34.8780   -8.4880   14.8097 C   0  0  0  0  0  0  0  0  0  0  0  0
   35.1357   -7.5943   14.2241 H   0  0  0  0  0  0  0  0  0  0  0  0
   34.7264   -9.2813   14.0645 H   0  0  0  0  0  0  0  0  0  0  0  0
   36.1758   -8.9015   15.6883 C   0  0  0  0  0  0  0  0  0  0  0  0
   36.0192  -10.3699   16.1624 C   0  0  0  0  0  0  0  0  0  0  0  0
   36.3404   -7.9578   16.8891 C   0  0  0  0  0  0  0  0  0  0  0  0
   37.4520   -8.8463   14.7526 C   0  0  0  0  0  0  0  0  0  0  0  0
   33.5802   -6.9275   17.3224 H   0  0  0  0  0  0  0  0  0  0  0  0
   32.7593   -6.1477   15.9772 H   0  0  0  0  0  0  0  0  0  0  0  0
   34.4695   -6.2733   15.9338 H   0  0  0  0  0  0  0  0  0  0  0  0
   33.3350  -10.3288   16.0060 H   0  0  0  0  0  0  0  0  0  0  0  0
   32.2147   -9.3988   16.9412 H   0  0  0  0  0  0  0  0  0  0  0  0
   33.8590   -9.3098   17.3701 H   0  0  0  0  0  0  0  0  0  0  0  0
   35.4915   -7.9931   17.5716 H   0  0  0  0  0  0  0  0  0  0  0  0
   36.4679   -6.9226   16.5578 H   0  0  0  0  0  0  0  0  0  0  0  0
   37.1911   -8.2045   17.5216 H   0  0  0  0  0  0  0  0  0  0  0  0
   36.9646  -10.9003   16.2510 H   0  0  0  0  0  0  0  0  0  0  0  0
   35.4334  -10.9583   15.4482 H   0  0  0  0  0  0  0  0  0  0  0  0
   35.5529  -10.4482   17.1472 H   0  0  0  0  0  0  0  0  0  0  0  0
   38.9549   -8.8809   15.3085 C   0  0  0  0  0  0  0  0  0  0  0  0
   37.3727   -7.9415   14.1330 H   0  0  0  0  0  0  0  0  0  0  0  0
   37.3341   -9.6776   14.0427 H   0  0  0  0  0  0  0  0  0  0  0  0
   39.1814   -9.8243   16.4975 C   0  0  0  0  0  0  0  0  0  0  0  0
   39.3576   -7.4448   15.7201 C   0  0  0  0  0  0  0  0  0  0  0  0
   39.8619   -9.3365   14.1013 C   0  0  0  0  0  0  0  0  0  0  0  0
   39.8374   -8.5313   13.3529 H   0  0  0  0  0  0  0  0  0  0  0  0
   39.3676  -10.1884   13.6133 H   0  0  0  0  0  0  0  0  0  0  0  0
   41.3501   -9.7581   14.2624 C   0  0  0  0  0  0  0  0  0  0  0  0
   41.5449  -11.1639   14.8421 C   0  0  0  0  0  0  0  0  0  0  0  0
   42.2531   -8.7587   14.9766 C   0  0  0  0  0  0  0  0  0  0  0  0
   41.7297   -9.8211   13.2320 H   0  0  0  0  0  0  0  0  0  0  0  0
   39.0855  -10.8721   16.1967 H   0  0  0  0  0  0  0  0  0  0  0  0
   38.4999   -9.6582   17.3303 H   0  0  0  0  0  0  0  0  0  0  0  0
   40.1787   -9.6911   16.9271 H   0  0  0  0  0  0  0  0  0  0  0  0
   38.7058   -7.0270   16.4873 H   0  0  0  0  0  0  0  0  0  0  0  0
   39.3280   -6.7641   14.8621 H   0  0  0  0  0  0  0  0  0  0  0  0
   40.3627   -7.3990   16.1422 H   0  0  0  0  0  0  0  0  0  0  0  0
   40.8510  -11.8803   14.3911 H   0  0  0  0  0  0  0  0  0  0  0  0
   41.4184  -11.1960   15.9268 H   0  0  0  0  0  0  0  0  0  0  0  0
   42.5619  -11.5178   14.6375 H   0  0  0  0  0  0  0  0  0  0  0  0
   42.0749   -8.7391   16.0552 H   0  0  0  0  0  0  0  0  0  0  0  0
   42.1217   -7.7500   14.5737 H   0  0  0  0  0  0  0  0  0  0  0  0
   43.3055   -9.0319   14.8376 H   0  0  0  0  0  0  0  0  0  0  0  0
  1  2  1  0  0  0  0
  1  4  1  0  0  0  0
  1 21  1  0  0  0  0
  1 22  1  0  0  0  0
  2  3  1  0  0  0  0
  2 23  1  0  0  0  0
  2 24  1  0  0  0  0
  3  5  1  0  0  0  0
  3 25  1  0  0  0  0
  3 26  1  0  0  0  0
  4  6  1  0  0  0  0
  4 27  1  0  0  0  0
  4 28  1  0  0  0  0
  5  7  1  0  0  0  0
  5 29  1  0  0  0  0
  5 30  1  0  0  0  0
  6  8  1  0  0  0  0
  6 31  1  0  0  0  0
  6 32  1  0  0  0  0
  7  9  1  0  0  0  0
  7 33  1  0  0  0  0
  7 34  1  0  0  0  0
  8 10  1  0  0  0  0
  8 35  1  0  0  0  0
  8 36  1  0  0  0  0
  9 11  1  0  0  0  0
  9 37  1  0  0  0  0
  9 38  1  0  0  0  0
 10 12  1  0  0  0  0
 10 39  1  0  0  0  0
 10 40  1  0  0  0  0
 11 13  1  0  0  0  0
 11 41  1  0  0  0  0
 11 42  1  0  0  0  0
 12 14  1  0  0  0  0
 12 43  1  0  0  0  0
 12 44  1  0  0  0  0
 13 15  1  0  0  0  0
 13 45  1  0  0  0  0
 13 46  1  0  0  0  0
 14 16  1  0  0  0  0
 14 47  1  0  0  0  0
 14 48  1  0  0  0  0
 15 17  1  0  0  0  0
 15 49  1  0  0  0  0
 15 50  1  0  0  0  0
 16 18  1  0  0  0  0
 16 51  1  0  0  0  0
 16 52  1  0  0  0  0
 17 19  1  0  0  0  0
 17 53  1  0  0  0  0
 17 54  1  0  0  0  0
 18 20  1  0  0  0  0
 18 55  1  0  0  0  0
 18 56  1  0  0  0  0
 19 57  1  0  0  0  0
 19 58  1  0  0  0  0
 19 59  1  0  0  0  0
 20 60  1  0  0  0  0
 20 61  1  0  0  0  0
 20 62  1  0  0  0  0
 63 53  1  0  0  0  0
 64 53  1  0  0  0  0
 65 53  1  0  0  0  0
 66 54  1  0  0  0  0
 67 54  1  0  0  0  0
 68 54  1  0  0  0  0
 69 45  1  0  0  0  0
 70 45  1  0  0  0  0
 71 45  1  0  0  0  0
 72 46  1  0  0  0  0
 73 46  1  0  0  0  0
 74 46  1  0  0  0  0
 75 37  1  0  0  0  0
 76 37  1  0  0  0  0
 77 37  1  0  0  0  0
 78 38  1  0  0  0  0
 79 38  1  0  0  0  0
 80 38  1  0  0  0  0
 81 29  1  0  0  0  0
 82 29  1  0  0  0  0
 83 29  1  0  0  0  0
 84 30  1  0  0  0  0
 85 30  1  0  0  0  0
 86 30  1  0  0  0  0
 87 23  1  0  0  0  0
 88 23  1  0  0  0  0
 89 23  1  0  0  0  0
 90 24  1  0  0  0  0
 91 24  1  0  0  0  0
 92 24  1  0  0  0  0
 93 28  1  0  0  0  0
 94 28  1  0  0  0  0
 95 28  1  0  0  0  0
 96 27  1  0  0  0  0
 97 27  1  0  0  0  0
 98 27  1  0  0  0  0
 99 36  1  0  0  0  0
100 36  1  0  0  0  0
101 36  1  0  0  0  0
102 35  1  0  0  0  0
103 35  1  0  0  0  0
104 35  1  0  0  0  0
105 44  1  0  0  0  0
106 44  1  0  0  0  0
107 44  1  0  0  0  0
108 43  1  0  0  0  0
109 43  1  0  0  0  0
110 43  1  0  0  0  0
111 52  1  0  0  0  0
112 52  1  0  0  0  0
113 52  1  0  0  0  0
114 51  1  0  0  0  0
115 51  1  0  0  0  0
116 51  1  0  0  0  0
117 61  1  0  0  0  0
118 61  1  0  0  0  0
119 61  1  0  0  0  0
120 60  1  0  0  0  0
121 60  1  0  0  0  0
122 60  1  0  0  0  0
123 62  1  0  0  0  0
124 62  1  0  0  0  0
125 62  1  0  0  0  0
126125  1  0  0  0  0
127125  1  0  0  0  0
128125  1  0  0  0  0
129126  1  0  0  0  0
130126  1  0  0  0  0
131126  1  0  0  0  0
132127  1  0  0  0  0
133127  1  0  0  0  0
134127  1  0  0  0  0
135 59  1  0  0  0  0
136 59  1  0  0  0  0
137 59  1  0  0  0  0
138137  1  0  0  0  0
139137  1  0  0  0  0
140137  1  0  0  0  0
141140  1  0  0  0  0
142140  1  0  0  0  0
143140  1  0  0  0  0
144143  1  0  0  0  0
145143  1  0  0  0  0
146143  1  0  0  0  0
147136  1  0  0  0  0
148136  1  0  0  0  0
149136  1  0  0  0  0
150135  1  0  0  0  0
151135  1  0  0  0  0
152135  1  0  0  0  0
153142  1  0  0  0  0
154142  1  0  0  0  0
155142  1  0  0  0  0
156141  1  0  0  0  0
157141  1  0  0  0  0
158141  1  0  0  0  0
159128  1  0  0  0  0
160128  1  0  0  0  0
161128  1  0  0  0  0
162161  1  0  0  0  0
163161  1  0  0  0  0
164161  1  0  0  0  0
165163  1  0  0  0  0
166163  1  0  0  0  0
167163  1  0  0  0  0
168162  1  0  0  0  0
169162  1  0  0  0  0
170162  1  0  0  0  0
171164  1  0  0  0  0
172164  1  0  0  0  0
173164  1  0  0  0  0
174173  1  0  0  0  0
175173  1  0  0  0  0
176173  1  0  0  0  0
177175  1  0  0  0  0
178175  1  0  0  0  0
179175  1  0  0  0  0
180174  1  0  0  0  0
181174  1  0  0  0  0
182174  1  0  0  0  0
183176  1  0  0  0  0
184176  1  0  0  0  0
185176  1  0  0  0  0
186185  1  0  0  0  0
187185  1  0  0  0  0
188185  1  0  0  0  0
189188  1  0  0  0  0
190188  1  0  0  0  0
191188  1  0  0  0  0
192191  1  0  0  0  0
193191  1  0  0  0  0
194191  1  0  0  0  0
195186  1  0  0  0  0
196186  1  0  0  0  0
197186  1  0  0  0  0
198187  1  0  0  0  0
199187  1  0  0  0  0
200187  1  0  0  0  0
201193  1  0  0  0  0
202193  1  0  0  0  0
203193  1  0  0  0  0
204192  1  0  0  0  0
205192  1  0  0  0  0
206192  1  0  0  0  0
207194  1  0  0  0  0
208194  1  0  0  0  0
209194  1  0  0  0  0
210209  1  0  0  0  0
211209  1  0  0  0  0
212209  1  0  0  0  0
213212  1  0  0  0  0
214212  1  0  0  0  0
215212  1  0  0  0  0
216215  1  0  0  0  0
217215  1  0  0  0  0
218215  1  0  0  0  0
219210  1  0  0  0  0
220210  1  0  0  0  0
221210  1  0  0  0  0
222211  1  0  0  0  0
223211  1  0  0  0  0
224211  1  0  0  0  0
225217  1  0  0  0  0
226217  1  0  0  0  0
227217  1  0  0  0  0
228216  1  0  0  0  0
229216  1  0  0  0  0
230216  1  0  0  0  0
231218  1  0  0  0  0
232218  1  0  0  0  0
233218  1  0  0  0  0
234233  1  0  0  0  0
235233  1  0  0  0  0
236233  1  0  0  0  0
237236  1  0  0  0  0
238236  1  0  0  0  0
239236  1  0  0  0  0
240239  1  0  0  0  0
241239  1  0  0  0  0
242239  1  0  0  0  0
243235  1  0  0  0  0
244235  1  0  0  0  0
245235  1  0  0  0  0
246234  1  0  0  0  0
247234  1  0  0  0  0
248234  1  0  0  0  0
249241  1  0  0  0  0
250241  1  0  0  0  0
251241  1  0  0  0  0
252240  1  0  0  0  0
253240  1  0  0  0  0
254240  1  0  0  0  0
255242  1  0  0  0  0
256242  1  0  0  0  0
257242  1  0  0  0  0
258257  1  0  0  0  0
259257  1  0  0  0  0
260257  1  0  0  0  0
261260  1  0  0  0  0
262260  1  0  0  0  0
263260  1  0  0  0  0
264263  1  0  0  0  0
265263  1  0  0  0  0
266263  1  0  0  0  0
267259  1  0  0  0  0
268259  1  0  0  0  0
269259  1  0  0  0  0
270258  1  0  0  0  0
271258  1  0  0  0  0
272258  1  0  0  0  0
273265  1  0  0  0  0
274265  1  0  0  0  0
275265  1  0  0  0  0
276264  1  0  0  0  0
277264  1  0  0  0  0
278264  1  0  0  0  0
279266  1  0  0  0  0
280266  1  0  0  0  0
281266  1  0  0  0  0
282279  1  0  0  0  0
283279  1  0  0  0  0
284279  1  0  0  0  0
285284  1  0  0  0  0
286284  1  0  0  0  0
287284  1  0  0  0  0
288287  1  0  0  0  0
289287  1  0  0  0  0
290287  1  0  0  0  0
291282  1  0  0  0  0
292282  1  0  0  0  0
293282  1  0  0  0  0
294283  1  0  0  0  0
295283  1  0  0  0  0
296283  1  0  0  0  0
297288  1  0  0  0  0
298288  1  0  0  0  0
299288  1  0  0  0  0
300289  1  0  0  0  0
301289  1  0  0  0  0
302289  1  0  0  0  0
M  END
