
 OpenBabel06161212583D

 23 22  0  0  0  0  0  0  0  0999 V2000
  -17.9108   -0.2919   -0.1511 O   0  0  0  0  0  0  0  0  0  0  0  0
  -19.1582   -0.9644   -0.0361 C   0  0  0  0  0  0  0  0  0  0  0  0
  -19.3087   -1.2638    1.0064 H   0  0  0  0  0  0  0  0  0  0  0  0
  -19.1298   -1.8763   -0.6426 H   0  0  0  0  0  0  0  0  0  0  0  0
  -20.2919   -0.0569   -0.4973 C   0  0  0  0  0  0  0  0  0  0  0  0
  -20.1267    0.2432   -1.5387 H   0  0  0  0  0  0  0  0  0  0  0  0
  -20.3122    0.8533    0.1144 H   0  0  0  0  0  0  0  0  0  0  0  0
  -21.5313   -0.7550   -0.3772 O   0  0  0  0  0  0  0  0  0  0  0  0
  -22.6256    0.0487   -0.8199 C   0  0  0  0  0  0  0  0  0  0  0  0
  -22.4808    0.3364   -1.8682 H   0  0  0  0  0  0  0  0  0  0  0  0
  -22.6822    0.9682   -0.2250 H   0  0  0  0  0  0  0  0  0  0  0  0
  -23.9219   -0.7407   -0.6761 C   0  0  0  0  0  0  0  0  0  0  0  0
  -24.0743   -1.0158    0.3745 H   0  0  0  0  0  0  0  0  0  0  0  0
  -23.8579   -1.6677   -1.2584 H   0  0  0  0  0  0  0  0  0  0  0  0
  -25.0148    0.0525   -1.1378 O   0  0  0  0  0  0  0  0  0  0  0  0
  -26.2522   -0.6474   -1.0282 C   0  0  0  0  0  0  0  0  0  0  0  0
  -26.4415   -0.9014    0.0205 H   0  0  0  0  0  0  0  0  0  0  0  0
  -26.2106   -1.5687   -1.6197 H   0  0  0  0  0  0  0  0  0  0  0  0
  -27.3579    0.2486   -1.5495 C   0  0  0  0  0  0  0  0  0  0  0  0
  -27.1718    0.5231   -2.5931 H   0  0  0  0  0  0  0  0  0  0  0  0
  -27.4006    1.1814   -0.9775 H   0  0  0  0  0  0  0  0  0  0  0  0
  -28.3286   -0.2508   -1.4836 H   0  0  0  0  0  0  0  0  0  0  0  0
  -17.2275   -0.9157    0.1494 H   0  0  0  0  0  0  0  0  0  0  0  0
  2  1  1  0  0  0  0
  3  2  1  0  0  0  0
  4  2  1  0  0  0  0
  5  2  1  0  0  0  0
  6  5  1  0  0  0  0
  7  5  1  0  0  0  0
  8  5  1  0  0  0  0
  9  8  1  0  0  0  0
 10  9  1  0  0  0  0
 11  9  1  0  0  0  0
 12  9  1  0  0  0  0
 13 12  1  0  0  0  0
 14 12  1  0  0  0  0
 15 12  1  0  0  0  0
 16 15  1  0  0  0  0
 17 16  1  0  0  0  0
 18 16  1  0  0  0  0
 19 16  1  0  0  0  0
 20 19  1  0  0  0  0
 21 19  1  0  0  0  0
 22 19  1  0  0  0  0
 23  1  1  0  0  0  0
M  END
