
 OpenBabel06251217153D

191190  0  0  0  0  0  0  0  0999 V2000
   -0.1418    2.1994   -2.4313 C   0  0  0  0  0  0  0  0  0  0  0  0
    0.2714    3.5897   -2.9756 C   0  0  0  0  0  0  0  0  0  0  0  0
    1.3071    3.7931   -2.6717 H   0  0  0  0  0  0  0  0  0  0  0  0
   -0.3455    4.3627   -2.5000 H   0  0  0  0  0  0  0  0  0  0  0  0
    0.1693    3.7241   -4.5135 C   0  0  0  0  0  0  0  0  0  0  0  0
    1.2506    2.8645   -5.1631 C   0  0  0  0  0  0  0  0  0  0  0  0
    0.2449    5.2161   -4.9342 C   0  0  0  0  0  0  0  0  0  0  0  0
    0.0126    5.4545   -6.4460 C   0  0  0  0  0  0  0  0  0  0  0  0
    1.1370    1.6579   -5.3336 O   0  0  0  0  0  0  0  0  0  0  0  0
    2.3718    3.5798   -5.4463 O   0  0  0  0  0  0  0  0  0  0  0  0
    3.3994    2.8226   -6.1002 C   0  0  0  0  0  0  0  0  0  0  0  0
    2.9856    2.3144   -6.9794 H   0  0  0  0  0  0  0  0  0  0  0  0
    3.7996    2.0803   -5.4008 H   0  0  0  0  0  0  0  0  0  0  0  0
    4.4969    3.7889   -6.5293 C   0  0  0  0  0  0  0  0  0  0  0  0
    4.8789    4.3217   -5.6495 H   0  0  0  0  0  0  0  0  0  0  0  0
    4.0643    4.5581   -7.1804 H   0  0  0  0  0  0  0  0  0  0  0  0
    5.6329    3.0638   -7.2450 C   0  0  0  0  0  0  0  0  0  0  0  0
    5.2415    2.5242   -8.1152 H   0  0  0  0  0  0  0  0  0  0  0  0
    6.0776    2.3187   -6.5756 H   0  0  0  0  0  0  0  0  0  0  0  0
    6.7132    4.0296   -7.7032 C   0  0  0  0  0  0  0  0  0  0  0  0
    7.1386    4.5755   -6.8553 H   0  0  0  0  0  0  0  0  0  0  0  0
    6.3115    4.7576   -8.4141 H   0  0  0  0  0  0  0  0  0  0  0  0
    7.5231    3.4846   -8.1982 H   0  0  0  0  0  0  0  0  0  0  0  0
   -1.4407    5.1574   -6.7823 C   0  0  0  0  0  0  0  0  0  0  0  0
    0.6214    4.7478   -7.0170 H   0  0  0  0  0  0  0  0  0  0  0  0
    0.4303    6.8881   -6.8528 C   0  0  0  0  0  0  0  0  0  0  0  0
    1.4538    7.0703   -6.4983 H   0  0  0  0  0  0  0  0  0  0  0  0
   -0.2081    7.6112   -6.3293 H   0  0  0  0  0  0  0  0  0  0  0  0
    0.3794    7.1632   -8.3764 C   0  0  0  0  0  0  0  0  0  0  0  0
   -1.8156    4.0951   -7.2586 O   0  0  0  0  0  0  0  0  0  0  0  0
   -2.2618    6.1732   -6.3980 O   0  0  0  0  0  0  0  0  0  0  0  0
   -3.6667    5.9204   -6.5495 C   0  0  0  0  0  0  0  0  0  0  0  0
   -4.1745    6.4403   -5.7298 H   0  0  0  0  0  0  0  0  0  0  0  0
   -3.8932    4.8549   -6.4373 H   0  0  0  0  0  0  0  0  0  0  0  0
   -4.1577    6.4547   -7.8893 C   0  0  0  0  0  0  0  0  0  0  0  0
   -3.5463    6.0445   -8.7021 H   0  0  0  0  0  0  0  0  0  0  0  0
   -4.0071    7.5402   -7.9141 H   0  0  0  0  0  0  0  0  0  0  0  0
   -5.6293    6.1139   -8.1132 C   0  0  0  0  0  0  0  0  0  0  0  0
   -6.2336    6.5003   -7.2843 H   0  0  0  0  0  0  0  0  0  0  0  0
   -5.7555    5.0250   -8.1259 H   0  0  0  0  0  0  0  0  0  0  0  0
   -6.1553    6.6854   -9.4190 C   0  0  0  0  0  0  0  0  0  0  0  0
   -5.5653    6.3330  -10.2708 H   0  0  0  0  0  0  0  0  0  0  0  0
   -6.1271    7.7790   -9.4053 H   0  0  0  0  0  0  0  0  0  0  0  0
   -7.1943    6.3785   -9.5748 H   0  0  0  0  0  0  0  0  0  0  0  0
   -0.5597    6.7805   -8.7928 H   0  0  0  0  0  0  0  0  0  0  0  0
    1.5109    6.3991   -9.0592 C   0  0  0  0  0  0  0  0  0  0  0  0
    0.4157    8.6905   -8.6331 C   0  0  0  0  0  0  0  0  0  0  0  0
    1.3401    9.1093   -8.2141 H   0  0  0  0  0  0  0  0  0  0  0  0
   -0.4072    9.1536   -8.0715 H   0  0  0  0  0  0  0  0  0  0  0  0
    0.3033    9.1096  -10.1119 C   0  0  0  0  0  0  0  0  0  0  0  0
    1.4542    5.2013   -9.3053 O   0  0  0  0  0  0  0  0  0  0  0  0
    2.5998    7.1794   -9.2860 O   0  0  0  0  0  0  0  0  0  0  0  0
    3.6785    6.5118   -9.9568 C   0  0  0  0  0  0  0  0  0  0  0  0
    3.2983    5.9049  -10.7871 H   0  0  0  0  0  0  0  0  0  0  0  0
    4.1914    5.8659   -9.2374 H   0  0  0  0  0  0  0  0  0  0  0  0
    4.6342    7.5706  -10.4948 C   0  0  0  0  0  0  0  0  0  0  0  0
    4.9733    8.2117   -9.6718 H   0  0  0  0  0  0  0  0  0  0  0  0
    4.0903    8.2288  -11.1841 H   0  0  0  0  0  0  0  0  0  0  0  0
    5.8297    6.9359  -11.2002 C   0  0  0  0  0  0  0  0  0  0  0  0
    5.4826    6.2689  -11.9979 H   0  0  0  0  0  0  0  0  0  0  0  0
    6.3967    6.3233  -10.4899 H   0  0  0  0  0  0  0  0  0  0  0  0
    6.7500    7.9874  -11.7980 C   0  0  0  0  0  0  0  0  0  0  0  0
    7.1322    8.6612  -11.0248 H   0  0  0  0  0  0  0  0  0  0  0  0
    6.2241    8.5867  -12.5481 H   0  0  0  0  0  0  0  0  0  0  0  0
    7.6051    7.5087  -12.2855 H   0  0  0  0  0  0  0  0  0  0  0  0
   -0.9964    8.6483  -10.7405 C   0  0  0  0  0  0  0  0  0  0  0  0
    1.1119    8.6509  -10.6928 H   0  0  0  0  0  0  0  0  0  0  0  0
    0.4484   10.6241  -10.2661 C   0  0  0  0  0  0  0  0  0  0  0  0
    1.4381   10.9541   -9.9342 H   0  0  0  0  0  0  0  0  0  0  0  0
   -0.3021   11.1643   -9.6784 H   0  0  0  0  0  0  0  0  0  0  0  0
    0.3247   10.9224  -11.3130 H   0  0  0  0  0  0  0  0  0  0  0  0
   -1.0509    7.8230  -11.6417 O   0  0  0  0  0  0  0  0  0  0  0  0
   -2.0691    9.2474  -10.1567 O   0  0  0  0  0  0  0  0  0  0  0  0
   -3.3529    8.8622  -10.6673 C   0  0  0  0  0  0  0  0  0  0  0  0
   -4.0630    8.9852   -9.8442 H   0  0  0  0  0  0  0  0  0  0  0  0
   -3.3686    7.8027  -10.9507 H   0  0  0  0  0  0  0  0  0  0  0  0
   -3.7553    9.7672  -11.8262 C   0  0  0  0  0  0  0  0  0  0  0  0
   -3.0070    9.7062  -12.6254 H   0  0  0  0  0  0  0  0  0  0  0  0
   -3.7475   10.8103  -11.4859 H   0  0  0  0  0  0  0  0  0  0  0  0
   -5.1337    9.3950  -12.3668 C   0  0  0  0  0  0  0  0  0  0  0  0
   -5.8714    9.4127  -11.5561 H   0  0  0  0  0  0  0  0  0  0  0  0
   -5.1123    8.3726  -12.7623 H   0  0  0  0  0  0  0  0  0  0  0  0
   -5.5812   10.3473  -13.4634 C   0  0  0  0  0  0  0  0  0  0  0  0
   -4.8756   10.3441  -14.3000 H   0  0  0  0  0  0  0  0  0  0  0  0
   -5.6605   11.3710  -13.0834 H   0  0  0  0  0  0  0  0  0  0  0  0
   -6.5634   10.0508  -13.8448 H   0  0  0  0  0  0  0  0  0  0  0  0
    0.1049    2.1037   -0.9076 C   0  0  0  0  0  0  0  0  0  0  0  0
    0.4609    1.4411   -2.9398 H   0  0  0  0  0  0  0  0  0  0  0  0
   -1.6019    1.8729   -2.7146 C   0  0  0  0  0  0  0  0  0  0  0  0
   -0.7959    3.3318   -4.8528 H   0  0  0  0  0  0  0  0  0  0  0  0
    1.2202    5.6272   -4.6437 H   0  0  0  0  0  0  0  0  0  0  0  0
   -0.5050    5.7812   -4.3645 H   0  0  0  0  0  0  0  0  0  0  0  0
   -1.9890    0.7599   -3.0416 O   0  0  0  0  0  0  0  0  0  0  0  0
   -2.4098    2.9363   -2.4498 O   0  0  0  0  0  0  0  0  0  0  0  0
   -3.8206    2.6932   -2.5571 C   0  0  0  0  0  0  0  0  0  0  0  0
   -4.2983    3.2114   -1.7185 H   0  0  0  0  0  0  0  0  0  0  0  0
   -4.0620    1.6310   -2.4540 H   0  0  0  0  0  0  0  0  0  0  0  0
   -4.3406    3.2449   -3.8781 C   0  0  0  0  0  0  0  0  0  0  0  0
   -3.7740    2.8093   -4.7101 H   0  0  0  0  0  0  0  0  0  0  0  0
   -4.1515    4.3245   -3.9141 H   0  0  0  0  0  0  0  0  0  0  0  0
   -5.8311    2.9573   -4.0449 C   0  0  0  0  0  0  0  0  0  0  0  0
   -6.3872    3.3570   -3.1890 H   0  0  0  0  0  0  0  0  0  0  0  0
   -5.9969    1.8740   -4.0619 H   0  0  0  0  0  0  0  0  0  0  0  0
   -6.3869    3.5609   -5.3229 C   0  0  0  0  0  0  0  0  0  0  0  0
   -5.8613    3.1739   -6.2014 H   0  0  0  0  0  0  0  0  0  0  0  0
   -6.2915    4.6509   -5.3124 H   0  0  0  0  0  0  0  0  0  0  0  0
   -7.4485    3.3163   -5.4276 H   0  0  0  0  0  0  0  0  0  0  0  0
   -0.6550    2.7012   -0.3864 H   0  0  0  0  0  0  0  0  0  0  0  0
    1.0712    2.5621   -0.6612 H   0  0  0  0  0  0  0  0  0  0  0  0
    0.0649    0.6527   -0.3564 C   0  0  0  0  0  0  0  0  0  0  0  0
    0.1135    0.6729    1.1880 C   0  0  0  0  0  0  0  0  0  0  0  0
   -0.6044    1.4159    1.5595 H   0  0  0  0  0  0  0  0  0  0  0  0
    1.1064    1.0220    1.5032 H   0  0  0  0  0  0  0  0  0  0  0  0
   -0.1685   -0.6871    1.8750 C   0  0  0  0  0  0  0  0  0  0  0  0
    0.5725   -1.4066    1.5147 H   0  0  0  0  0  0  0  0  0  0  0  0
   -1.5368   -1.2672    1.5456 C   0  0  0  0  0  0  0  0  0  0  0  0
   -0.0301   -0.5392    3.4087 C   0  0  0  0  0  0  0  0  0  0  0  0
   -1.7526   -2.4715    1.5064 O   0  0  0  0  0  0  0  0  0  0  0  0
   -2.4844   -0.2991    1.4356 O   0  0  0  0  0  0  0  0  0  0  0  0
   -3.8342   -0.7594    1.2622 C   0  0  0  0  0  0  0  0  0  0  0  0
   -4.3558   -0.6066    2.2129 H   0  0  0  0  0  0  0  0  0  0  0  0
   -3.8895   -1.8227    1.0061 H   0  0  0  0  0  0  0  0  0  0  0  0
   -4.4927    0.0626    0.1619 C   0  0  0  0  0  0  0  0  0  0  0  0
   -3.9377   -0.0849   -0.7723 H   0  0  0  0  0  0  0  0  0  0  0  0
   -4.4106    1.1303    0.3994 H   0  0  0  0  0  0  0  0  0  0  0  0
   -5.9561   -0.3320   -0.0222 C   0  0  0  0  0  0  0  0  0  0  0  0
   -6.5058   -0.1609    0.9107 H   0  0  0  0  0  0  0  0  0  0  0  0
   -6.0282   -1.4023   -0.2482 H   0  0  0  0  0  0  0  0  0  0  0  0
   -6.6163    0.4554   -1.1412 C   0  0  0  0  0  0  0  0  0  0  0  0
   -6.1290    0.2520   -2.0995 H   0  0  0  0  0  0  0  0  0  0  0  0
   -6.5670    1.5316   -0.9484 H   0  0  0  0  0  0  0  0  0  0  0  0
   -7.6700    0.1739   -1.2327 H   0  0  0  0  0  0  0  0  0  0  0  0
   -0.8069    0.1534    3.7610 H   0  0  0  0  0  0  0  0  0  0  0  0
    0.9319   -0.0616    3.6369 H   0  0  0  0  0  0  0  0  0  0  0  0
   -0.1499   -1.8568    4.2181 C   0  0  0  0  0  0  0  0  0  0  0  0
   -0.1445   -1.5344    5.7282 C   0  0  0  0  0  0  0  0  0  0  0  0
   -0.9313   -0.7971    5.9350 H   0  0  0  0  0  0  0  0  0  0  0  0
    0.8073   -1.0491    5.9828 H   0  0  0  0  0  0  0  0  0  0  0  0
   -0.3296   -2.7193    6.6866 C   0  0  0  0  0  0  0  0  0  0  0  0
    0.9116   -2.8950    3.8867 C   0  0  0  0  0  0  0  0  0  0  0  0
   -1.1066   -2.3141    3.9530 H   0  0  0  0  0  0  0  0  0  0  0  0
    0.5060   -3.4183    6.5787 H   0  0  0  0  0  0  0  0  0  0  0  0
   -1.6135   -3.5155    6.5762 C   0  0  0  0  0  0  0  0  0  0  0  0
   -0.2974   -2.3299    7.7115 H   0  0  0  0  0  0  0  0  0  0  0  0
    0.7674   -4.0899    4.1154 O   0  0  0  0  0  0  0  0  0  0  0  0
   -1.7974   -4.5640    7.1821 O   0  0  0  0  0  0  0  0  0  0  0  0
    2.0406   -2.3396    3.3742 O   0  0  0  0  0  0  0  0  0  0  0  0
   -2.5365   -2.9082    5.7879 O   0  0  0  0  0  0  0  0  0  0  0  0
    3.0134   -3.3023    2.9460 C   0  0  0  0  0  0  0  0  0  0  0  0
   -3.7164   -3.6879    5.5440 C   0  0  0  0  0  0  0  0  0  0  0  0
   -4.3298   -3.6993    6.4516 H   0  0  0  0  0  0  0  0  0  0  0  0
   -3.4423   -4.7142    5.2715 H   0  0  0  0  0  0  0  0  0  0  0  0
   -4.4768   -3.0363    4.3940 C   0  0  0  0  0  0  0  0  0  0  0  0
   -3.8193   -2.9742    3.5185 H   0  0  0  0  0  0  0  0  0  0  0  0
   -4.7214   -2.0002    4.6595 H   0  0  0  0  0  0  0  0  0  0  0  0
   -5.7455   -3.8083    4.0439 C   0  0  0  0  0  0  0  0  0  0  0  0
   -6.4075   -3.8512    4.9164 H   0  0  0  0  0  0  0  0  0  0  0  0
   -5.4918   -4.8410    3.7777 H   0  0  0  0  0  0  0  0  0  0  0  0
   -6.4884   -3.1650    2.8836 C   0  0  0  0  0  0  0  0  0  0  0  0
   -5.8705   -3.1556    1.9804 H   0  0  0  0  0  0  0  0  0  0  0  0
   -6.7695   -2.1337    3.1194 H   0  0  0  0  0  0  0  0  0  0  0  0
   -7.4023   -3.7247    2.6614 H   0  0  0  0  0  0  0  0  0  0  0  0
    1.1934   -0.2248   -0.8879 C   0  0  0  0  0  0  0  0  0  0  0  0
   -0.8731    0.1940   -0.6864 H   0  0  0  0  0  0  0  0  0  0  0  0
    1.1291   -1.4468   -0.9272 O   0  0  0  0  0  0  0  0  0  0  0  0
    2.2941    0.4992   -1.2232 O   0  0  0  0  0  0  0  0  0  0  0  0
    3.3783   -0.2880   -1.7344 C   0  0  0  0  0  0  0  0  0  0  0  0
    3.0238   -0.9262   -2.5526 H   0  0  0  0  0  0  0  0  0  0  0  0
    3.7787   -0.9122   -0.9279 H   0  0  0  0  0  0  0  0  0  0  0  0
    4.4528    0.6628   -2.2478 C   0  0  0  0  0  0  0  0  0  0  0  0
    4.7708    1.3282   -1.4355 H   0  0  0  0  0  0  0  0  0  0  0  0
    4.0197    1.3146   -3.0164 H   0  0  0  0  0  0  0  0  0  0  0  0
    5.6505   -0.0980   -2.8090 C   0  0  0  0  0  0  0  0  0  0  0  0
    5.3222   -0.7780   -3.6036 H   0  0  0  0  0  0  0  0  0  0  0  0
    6.1014   -0.7133   -2.0219 H   0  0  0  0  0  0  0  0  0  0  0  0
    6.7015    0.8475   -3.3665 C   0  0  0  0  0  0  0  0  0  0  0  0
    7.0733    1.5238   -2.5904 H   0  0  0  0  0  0  0  0  0  0  0  0
    6.2910    1.4517   -4.1814 H   0  0  0  0  0  0  0  0  0  0  0  0
    7.5512    0.2801   -3.7591 H   0  0  0  0  0  0  0  0  0  0  0  0
    2.5436   -4.0291    2.2720 H   0  0  0  0  0  0  0  0  0  0  0  0
    3.4180   -3.8216    3.8224 H   0  0  0  0  0  0  0  0  0  0  0  0
    4.1244   -2.5615    2.2118 C   0  0  0  0  0  0  0  0  0  0  0  0
    4.5898   -1.8377    2.8923 H   0  0  0  0  0  0  0  0  0  0  0  0
    3.6892   -1.9706    1.3964 H   0  0  0  0  0  0  0  0  0  0  0  0
    5.1714   -3.5278    1.6649 C   0  0  0  0  0  0  0  0  0  0  0  0
    4.6982   -4.2360    0.9745 H   0  0  0  0  0  0  0  0  0  0  0  0
    5.6025   -4.1139    2.4848 H   0  0  0  0  0  0  0  0  0  0  0  0
    6.2844   -2.7927    0.9368 C   0  0  0  0  0  0  0  0  0  0  0  0
    6.8038   -2.1026    1.6091 H   0  0  0  0  0  0  0  0  0  0  0  0
    5.8887   -2.2193    0.0930 H   0  0  0  0  0  0  0  0  0  0  0  0
    7.0181   -3.5059    0.5483 H   0  0  0  0  0  0  0  0  0  0  0  0
  2  1  1  0  0  0  0
  3  2  1  0  0  0  0
  4  2  1  0  0  0  0
  5  2  1  0  0  0  0
  6  5  1  0  0  0  0
  7  5  1  0  0  0  0
  8  7  1  0  0  0  0
  9  6  2  0  0  0  0
 10  6  1  0  0  0  0
 11 10  1  0  0  0  0
 12 11  1  0  0  0  0
 13 11  1  0  0  0  0
 14 11  1  0  0  0  0
 15 14  1  0  0  0  0
 16 14  1  0  0  0  0
 17 14  1  0  0  0  0
 18 17  1  0  0  0  0
 19 17  1  0  0  0  0
 20 17  1  0  0  0  0
 21 20  1  0  0  0  0
 22 20  1  0  0  0  0
 23 20  1  0  0  0  0
 24  8  1  0  0  0  0
 25  8  1  0  0  0  0
 26  8  1  0  0  0  0
 27 26  1  0  0  0  0
 28 26  1  0  0  0  0
 29 26  1  0  0  0  0
 30 24  2  0  0  0  0
 31 24  1  0  0  0  0
 32 31  1  0  0  0  0
 33 32  1  0  0  0  0
 34 32  1  0  0  0  0
 35 32  1  0  0  0  0
 36 35  1  0  0  0  0
 37 35  1  0  0  0  0
 38 35  1  0  0  0  0
 39 38  1  0  0  0  0
 40 38  1  0  0  0  0
 41 38  1  0  0  0  0
 42 41  1  0  0  0  0
 43 41  1  0  0  0  0
 44 41  1  0  0  0  0
 45 29  1  0  0  0  0
 46 29  1  0  0  0  0
 47 29  1  0  0  0  0
 48 47  1  0  0  0  0
 49 47  1  0  0  0  0
 50 47  1  0  0  0  0
 51 46  2  0  0  0  0
 52 46  1  0  0  0  0
 53 52  1  0  0  0  0
 54 53  1  0  0  0  0
 55 53  1  0  0  0  0
 56 53  1  0  0  0  0
 57 56  1  0  0  0  0
 58 56  1  0  0  0  0
 59 56  1  0  0  0  0
 60 59  1  0  0  0  0
 61 59  1  0  0  0  0
 62 59  1  0  0  0  0
 63 62  1  0  0  0  0
 64 62  1  0  0  0  0
 65 62  1  0  0  0  0
 66 50  1  0  0  0  0
 67 50  1  0  0  0  0
 68 50  1  0  0  0  0
 69 68  1  0  0  0  0
 70 68  1  0  0  0  0
 71 68  1  0  0  0  0
 72 66  2  0  0  0  0
 73 66  1  0  0  0  0
 74 73  1  0  0  0  0
 75 74  1  0  0  0  0
 76 74  1  0  0  0  0
 77 74  1  0  0  0  0
 78 77  1  0  0  0  0
 79 77  1  0  0  0  0
 80 77  1  0  0  0  0
 81 80  1  0  0  0  0
 82 80  1  0  0  0  0
 83 80  1  0  0  0  0
 84 83  1  0  0  0  0
 85 83  1  0  0  0  0
 86 83  1  0  0  0  0
 87  1  1  0  0  0  0
 88  1  1  0  0  0  0
 89  1  1  0  0  0  0
 90  5  1  0  0  0  0
 91  7  1  0  0  0  0
 92  7  1  0  0  0  0
 93 89  2  0  0  0  0
 94 89  1  0  0  0  0
 95 94  1  0  0  0  0
 96 95  1  0  0  0  0
 97 95  1  0  0  0  0
 98 95  1  0  0  0  0
 99 98  1  0  0  0  0
100 98  1  0  0  0  0
101 98  1  0  0  0  0
102101  1  0  0  0  0
103101  1  0  0  0  0
104101  1  0  0  0  0
105104  1  0  0  0  0
106104  1  0  0  0  0
107104  1  0  0  0  0
108 87  1  0  0  0  0
109 87  1  0  0  0  0
110 87  1  0  0  0  0
111110  1  0  0  0  0
112111  1  0  0  0  0
113111  1  0  0  0  0
114111  1  0  0  0  0
115114  1  0  0  0  0
116114  1  0  0  0  0
117114  1  0  0  0  0
118116  2  0  0  0  0
119116  1  0  0  0  0
120119  1  0  0  0  0
121120  1  0  0  0  0
122120  1  0  0  0  0
123120  1  0  0  0  0
124123  1  0  0  0  0
125123  1  0  0  0  0
126123  1  0  0  0  0
127126  1  0  0  0  0
128126  1  0  0  0  0
129126  1  0  0  0  0
130129  1  0  0  0  0
131129  1  0  0  0  0
132129  1  0  0  0  0
133117  1  0  0  0  0
134117  1  0  0  0  0
135117  1  0  0  0  0
136135  1  0  0  0  0
137136  1  0  0  0  0
138136  1  0  0  0  0
139136  1  0  0  0  0
140135  1  0  0  0  0
141135  1  0  0  0  0
142139  1  0  0  0  0
143139  1  0  0  0  0
144139  1  0  0  0  0
145140  2  0  0  0  0
146143  2  0  0  0  0
147140  1  0  0  0  0
148143  1  0  0  0  0
149147  1  0  0  0  0
150148  1  0  0  0  0
151150  1  0  0  0  0
152150  1  0  0  0  0
153150  1  0  0  0  0
154153  1  0  0  0  0
155153  1  0  0  0  0
156153  1  0  0  0  0
157156  1  0  0  0  0
158156  1  0  0  0  0
159156  1  0  0  0  0
160159  1  0  0  0  0
161159  1  0  0  0  0
162159  1  0  0  0  0
163110  1  0  0  0  0
164110  1  0  0  0  0
165163  2  0  0  0  0
166163  1  0  0  0  0
167166  1  0  0  0  0
168167  1  0  0  0  0
169167  1  0  0  0  0
170167  1  0  0  0  0
171170  1  0  0  0  0
172170  1  0  0  0  0
173170  1  0  0  0  0
174173  1  0  0  0  0
175173  1  0  0  0  0
176173  1  0  0  0  0
177176  1  0  0  0  0
178176  1  0  0  0  0
179176  1  0  0  0  0
180149  1  0  0  0  0
181149  1  0  0  0  0
182149  1  0  0  0  0
183182  1  0  0  0  0
184182  1  0  0  0  0
185182  1  0  0  0  0
186185  1  0  0  0  0
187185  1  0  0  0  0
188185  1  0  0  0  0
189188  1  0  0  0  0
190188  1  0  0  0  0
191188  1  0  0  0  0
M  END
