
 OpenBabel06251217393D

 52 51  0  0  0  0  0  0  0  0999 V2000
   -1.0874   -0.6292   -0.6032 C   0  0  0  0  0  0  0  0  0  0  0  0
   -0.6056    0.6448   -1.8700 Si  0  0  0  0  0  0  0  0  0  0  0  0
    0.9330    1.1965   -1.5957 O   0  0  0  0  0  0  0  0  0  0  0  0
   -1.5275    1.8000   -1.7457 H   0  0  0  0  0  0  0  0  0  0  0  0
   -0.7676   -0.0558   -3.5848 C   0  0  0  0  0  0  0  0  0  0  0  0
   -1.0136   -0.2190    0.4086 H   0  0  0  0  0  0  0  0  0  0  0  0
   -0.4293   -1.5019   -0.6600 H   0  0  0  0  0  0  0  0  0  0  0  0
   -2.1154   -0.9694   -0.7571 H   0  0  0  0  0  0  0  0  0  0  0  0
   -1.7909   -0.3897   -3.7791 H   0  0  0  0  0  0  0  0  0  0  0  0
   -0.1005   -0.9130   -3.7190 H   0  0  0  0  0  0  0  0  0  0  0  0
   -0.5066    0.6935   -4.3382 H   0  0  0  0  0  0  0  0  0  0  0  0
    1.8084    2.5775   -1.3061 Si  0  0  0  0  0  0  0  0  0  0  0  0
    1.2578    3.4107    0.2802 C   0  0  0  0  0  0  0  0  0  0  0  0
    1.6303    3.8044   -2.7113 C   0  0  0  0  0  0  0  0  0  0  0  0
    3.4037    2.1098   -1.1674 O   0  0  0  0  0  0  0  0  0  0  0  0
    0.5893    4.1206   -2.8246 H   0  0  0  0  0  0  0  0  0  0  0  0
    1.9591    3.3599   -3.6553 H   0  0  0  0  0  0  0  0  0  0  0  0
    2.2392    4.6941   -2.5240 H   0  0  0  0  0  0  0  0  0  0  0  0
    1.3668    2.7310    1.1306 H   0  0  0  0  0  0  0  0  0  0  0  0
    0.2099    3.7176    0.2173 H   0  0  0  0  0  0  0  0  0  0  0  0
    1.8637    4.3006    0.4763 H   0  0  0  0  0  0  0  0  0  0  0  0
    4.3008    0.7125   -1.0099 Si  0  0  0  0  0  0  0  0  0  0  0  0
    4.1647   -0.3404   -2.5583 C   0  0  0  0  0  0  0  0  0  0  0  0
    3.7037   -0.3081    0.4468 C   0  0  0  0  0  0  0  0  0  0  0  0
    5.8874    1.1653   -0.7755 O   0  0  0  0  0  0  0  0  0  0  0  0
    4.5347    0.2083   -3.4295 H   0  0  0  0  0  0  0  0  0  0  0  0
    3.1252   -0.6238   -2.7474 H   0  0  0  0  0  0  0  0  0  0  0  0
    4.7550   -1.2556   -2.4542 H   0  0  0  0  0  0  0  0  0  0  0  0
    2.6564   -0.5970    0.3177 H   0  0  0  0  0  0  0  0  0  0  0  0
    3.7903    0.2610    1.3770 H   0  0  0  0  0  0  0  0  0  0  0  0
    4.2989   -1.2205    0.5468 H   0  0  0  0  0  0  0  0  0  0  0  0
    6.8057    2.5494   -0.6361 Si  0  0  0  0  0  0  0  0  0  0  0  0
    6.3162    3.5113    0.8976 C   0  0  0  0  0  0  0  0  0  0  0  0
    6.5611    3.6608   -2.1303 C   0  0  0  0  0  0  0  0  0  0  0  0
    8.4067    2.0730   -0.5396 O   0  0  0  0  0  0  0  0  0  0  0  0
    9.3342    0.7527   -0.9669 Si  0  0  0  0  0  0  0  0  0  0  0  0
    9.0593    0.3033   -2.7655 C   0  0  0  0  0  0  0  0  0  0  0  0
    8.9086   -0.7289    0.0959 C   0  0  0  0  0  0  0  0  0  0  0  0
   10.9179    1.2142   -0.7198 O   0  0  0  0  0  0  0  0  0  0  0  0
   11.0337    2.1616   -0.5482 H   0  0  0  0  0  0  0  0  0  0  0  0
    6.4667    2.9058    1.7962 H   0  0  0  0  0  0  0  0  0  0  0  0
    5.2618    3.8005    0.8536 H   0  0  0  0  0  0  0  0  0  0  0  0
    6.9160    4.4211    0.9921 H   0  0  0  0  0  0  0  0  0  0  0  0
    5.5153    3.9695   -2.2196 H   0  0  0  0  0  0  0  0  0  0  0  0
    6.8434    3.1378   -3.0488 H   0  0  0  0  0  0  0  0  0  0  0  0
    7.1763    4.5612   -2.0448 H   0  0  0  0  0  0  0  0  0  0  0  0
    7.8719   -1.0395   -0.0654 H   0  0  0  0  0  0  0  0  0  0  0  0
    9.0314   -0.4914    1.1567 H   0  0  0  0  0  0  0  0  0  0  0  0
    9.5581   -1.5762   -0.1424 H   0  0  0  0  0  0  0  0  0  0  0  0
    9.2841    1.1541   -3.4154 H   0  0  0  0  0  0  0  0  0  0  0  0
    8.0199    0.0074   -2.9382 H   0  0  0  0  0  0  0  0  0  0  0  0
    9.7031   -0.5311   -3.0585 H   0  0  0  0  0  0  0  0  0  0  0  0
  1  2  1  0  0  0  0
  3  2  1  0  0  0  0
  4  2  1  0  0  0  0
  5  2  1  0  0  0  0
  6  1  1  0  0  0  0
  7  1  1  0  0  0  0
  8  1  1  0  0  0  0
  9  5  1  0  0  0  0
 10  5  1  0  0  0  0
 11  5  1  0  0  0  0
 12  3  1  0  0  0  0
 13 12  1  0  0  0  0
 14 12  1  0  0  0  0
 15 12  1  0  0  0  0
 16 14  1  0  0  0  0
 17 14  1  0  0  0  0
 18 14  1  0  0  0  0
 19 13  1  0  0  0  0
 20 13  1  0  0  0  0
 21 13  1  0  0  0  0
 22 15  1  0  0  0  0
 23 22  1  0  0  0  0
 24 22  1  0  0  0  0
 25 22  1  0  0  0  0
 26 23  1  0  0  0  0
 27 23  1  0  0  0  0
 28 23  1  0  0  0  0
 29 24  1  0  0  0  0
 30 24  1  0  0  0  0
 31 24  1  0  0  0  0
 32 25  1  0  0  0  0
 33 32  1  0  0  0  0
 34 32  1  0  0  0  0
 35 32  1  0  0  0  0
 36 35  1  0  0  0  0
 37 36  1  0  0  0  0
 38 36  1  0  0  0  0
 39 36  1  0  0  0  0
 40 39  1  0  0  0  0
 41 33  1  0  0  0  0
 42 33  1  0  0  0  0
 43 33  1  0  0  0  0
 44 34  1  0  0  0  0
 45 34  1  0  0  0  0
 46 34  1  0  0  0  0
 47 38  1  0  0  0  0
 48 38  1  0  0  0  0
 49 38  1  0  0  0  0
 50 37  1  0  0  0  0
 51 37  1  0  0  0  0
 52 37  1  0  0  0  0
M  END
