
 OpenBabel07091212553D

 32 31  0  0  0  0  0  0  0  0999 V2000
   -0.0381   -0.1210    0.0914 C   0  0  0  0  0  0  0  0  0  0  0  0
    1.1243    0.1060   -0.8886 C   0  0  0  0  0  0  0  0  0  0  0  0
   -1.2494   -0.2007   -0.6807 O   0  0  0  0  0  0  0  0  0  0  0  0
    2.3453    0.2559   -0.1662 O   0  0  0  0  0  0  0  0  0  0  0  0
   -2.4392   -0.1077    0.1027 C   0  0  0  0  0  0  0  0  0  0  0  0
   -3.6605   -0.0185   -0.8202 C   0  0  0  0  0  0  0  0  0  0  0  0
   -4.8511   -0.0134   -0.0248 O   0  0  0  0  0  0  0  0  0  0  0  0
   -5.6070    0.1707   -0.6086 H   0  0  0  0  0  0  0  0  0  0  0  0
    3.5202    0.2318   -0.9885 C   0  0  0  0  0  0  0  0  0  0  0  0
    4.7168    0.0765   -0.0525 C   0  0  0  0  0  0  0  0  0  0  0  0
    4.6317   -0.8587    0.5125 H   0  0  0  0  0  0  0  0  0  0  0  0
    4.7569    0.8794    0.6908 H   0  0  0  0  0  0  0  0  0  0  0  0
    5.6591    0.0586   -0.6084 H   0  0  0  0  0  0  0  0  0  0  0  0
   -0.0948    0.7620    0.7418 H   0  0  0  0  0  0  0  0  0  0  0  0
    0.1974   -1.3475    0.9895 C   0  0  0  0  0  0  0  0  0  0  0  0
   -2.3934    0.7571    0.7740 H   0  0  0  0  0  0  0  0  0  0  0  0
   -2.5423   -0.9991    0.7315 H   0  0  0  0  0  0  0  0  0  0  0  0
   -3.6915   -0.9271   -1.4337 H   0  0  0  0  0  0  0  0  0  0  0  0
   -3.6110    1.1764   -1.7819 C   0  0  0  0  0  0  0  0  0  0  0  0
    0.9241    1.0154   -1.4665 H   0  0  0  0  0  0  0  0  0  0  0  0
    1.1952   -0.7205   -1.6051 H   0  0  0  0  0  0  0  0  0  0  0  0
    3.6556    1.4586   -1.9045 C   0  0  0  0  0  0  0  0  0  0  0  0
    3.4811   -0.6665   -1.6180 H   0  0  0  0  0  0  0  0  0  0  0  0
   -2.7229    1.1424   -2.4195 H   0  0  0  0  0  0  0  0  0  0  0  0
   -3.6149    2.7486   -0.9389 Cl  0  0  0  0  0  0  0  0  0  0  0  0
   -4.4968    1.1753   -2.4245 H   0  0  0  0  0  0  0  0  0  0  0  0
    1.1360   -1.2597    1.5449 H   0  0  0  0  0  0  0  0  0  0  0  0
    0.2588   -2.8791    0.0716 Cl  0  0  0  0  0  0  0  0  0  0  0  0
   -0.6078   -1.4589    1.7204 H   0  0  0  0  0  0  0  0  0  0  0  0
    3.6975    3.0018   -1.0120 Cl  0  0  0  0  0  0  0  0  0  0  0  0
    2.8155    1.5240   -2.6009 H   0  0  0  0  0  0  0  0  0  0  0  0
    4.5759    1.3971   -2.4938 H   0  0  0  0  0  0  0  0  0  0  0  0
  1  2  1  0  0  0  0
  1  3  1  0  0  0  0
  4  2  1  0  0  0  0
  5  3  1  0  0  0  0
  6  5  1  0  0  0  0
  7  6  1  0  0  0  0
  8  7  1  0  0  0  0
  9  4  1  0  0  0  0
 10  9  1  0  0  0  0
 11 10  1  0  0  0  0
 12 10  1  0  0  0  0
 13 10  1  0  0  0  0
 14  1  1  0  0  0  0
 15  1  1  0  0  0  0
 16  5  1  0  0  0  0
 17  5  1  0  0  0  0
 18  6  1  0  0  0  0
 19  6  1  0  0  0  0
 20  2  1  0  0  0  0
 21  2  1  0  0  0  0
 22  9  1  0  0  0  0
 23  9  1  0  0  0  0
 24 19  1  0  0  0  0
 25 19  1  0  0  0  0
 26 19  1  0  0  0  0
 27 15  1  0  0  0  0
 28 15  1  0  0  0  0
 29 15  1  0  0  0  0
 30 22  1  0  0  0  0
 31 22  1  0  0  0  0
 32 22  1  0  0  0  0
M  END
