
 OpenBabel07161216443D

155154  0  0  0  0  0  0  0  0999 V2000
   11.7429   -0.5271    1.5441 C   0  0  0  0  0  0  0  0  0  0  0  0
   10.3520   -0.5514    2.2168 C   0  0  0  0  0  0  0  0  0  0  0  0
    9.2388   -0.4247    1.1528 C   0  0  0  0  0  0  0  0  0  0  0  0
    7.8764   -0.0081    1.7511 C   0  0  0  0  0  0  0  0  0  0  0  0
    6.7355   -0.3222    0.7573 C   0  0  0  0  0  0  0  0  0  0  0  0
    5.3428   -0.3495    1.4261 C   0  0  0  0  0  0  0  0  0  0  0  0
    4.2314   -0.2243    0.3594 C   0  0  0  0  0  0  0  0  0  0  0  0
    2.8689    0.1964    0.9552 C   0  0  0  0  0  0  0  0  0  0  0  0
    1.7253   -0.1184   -0.0362 C   0  0  0  0  0  0  0  0  0  0  0  0
    0.3355   -0.1516    0.6396 C   0  0  0  0  0  0  0  0  0  0  0  0
   -0.7858   -0.0228   -0.4174 C   0  0  0  0  0  0  0  0  0  0  0  0
   -2.1407    0.4047    0.1934 C   0  0  0  0  0  0  0  0  0  0  0  0
   -3.3013    0.0850   -0.7777 C   0  0  0  0  0  0  0  0  0  0  0  0
   -4.6851    0.0701   -0.0842 C   0  0  0  0  0  0  0  0  0  0  0  0
   -5.8157    0.1913   -1.1329 C   0  0  0  0  0  0  0  0  0  0  0  0
   -7.1984    0.5420   -0.5283 C   0  0  0  0  0  0  0  0  0  0  0  0
   -8.3078    0.2979   -1.5783 C   0  0  0  0  0  0  0  0  0  0  0  0
   -9.7562    0.4032   -1.0386 C   0  0  0  0  0  0  0  0  0  0  0  0
  -10.7466    0.3738   -2.2231 C   0  0  0  0  0  0  0  0  0  0  0  0
  -12.2218    0.5849   -1.8611 C   0  0  0  0  0  0  0  0  0  0  0  0
   11.9164   -1.5006    1.0676 H   0  0  0  0  0  0  0  0  0  0  0  0
   11.7611    0.2175    0.7380 H   0  0  0  0  0  0  0  0  0  0  0  0
   12.8852   -0.2064    2.5339 C   0  0  0  0  0  0  0  0  0  0  0  0
   10.1711   -1.8380    3.0386 C   0  0  0  0  0  0  0  0  0  0  0  0
   10.2791    0.2942    2.9048 H   0  0  0  0  0  0  0  0  0  0  0  0
    9.5247    0.3125    0.3915 H   0  0  0  0  0  0  0  0  0  0  0  0
    9.1452   -1.3856    0.6307 H   0  0  0  0  0  0  0  0  0  0  0  0
    7.7081   -0.5742    2.6703 H   0  0  0  0  0  0  0  0  0  0  0  0
    7.8798    1.4850    2.1167 C   0  0  0  0  0  0  0  0  0  0  0  0
    6.7560    0.4272   -0.0444 H   0  0  0  0  0  0  0  0  0  0  0  0
    6.9095   -1.2929    0.2755 H   0  0  0  0  0  0  0  0  0  0  0  0
    5.1622   -1.6367    2.2470 C   0  0  0  0  0  0  0  0  0  0  0  0
    5.2670    0.4957    2.1143 H   0  0  0  0  0  0  0  0  0  0  0  0
    4.5197    0.5101   -0.4036 H   0  0  0  0  0  0  0  0  0  0  0  0
    4.1369   -1.1866   -0.1598 H   0  0  0  0  0  0  0  0  0  0  0  0
    2.7004   -0.3658    1.8767 H   0  0  0  0  0  0  0  0  0  0  0  0
    2.8752    1.6908    1.3161 C   0  0  0  0  0  0  0  0  0  0  0  0
    1.7401    0.6334   -0.8357 H   0  0  0  0  0  0  0  0  0  0  0  0
    1.9004   -1.0873   -0.5213 H   0  0  0  0  0  0  0  0  0  0  0  0
    0.1625   -1.4434    1.4551 C   0  0  0  0  0  0  0  0  0  0  0  0
    0.2630    0.6895    1.3332 H   0  0  0  0  0  0  0  0  0  0  0  0
   -0.5018    0.7097   -1.1838 H   0  0  0  0  0  0  0  0  0  0  0  0
   -0.8899   -0.9852   -0.9348 H   0  0  0  0  0  0  0  0  0  0  0  0
   -2.2965   -0.1501    1.1216 H   0  0  0  0  0  0  0  0  0  0  0  0
   -2.1249    1.9016    0.5435 C   0  0  0  0  0  0  0  0  0  0  0  0
   -3.2924    0.8256   -1.5877 H   0  0  0  0  0  0  0  0  0  0  0  0
   -3.1387   -0.8916   -1.2516 H   0  0  0  0  0  0  0  0  0  0  0  0
   -4.8536   -1.2059    0.7550 C   0  0  0  0  0  0  0  0  0  0  0  0
   -5.5558    0.9610   -1.8712 H   0  0  0  0  0  0  0  0  0  0  0  0
   -5.8809   -0.7552   -1.6854 H   0  0  0  0  0  0  0  0  0  0  0  0
   -7.3792   -0.1144    0.3256 H   0  0  0  0  0  0  0  0  0  0  0  0
   -7.2229    1.9937   -0.0297 C   0  0  0  0  0  0  0  0  0  0  0  0
   -8.1736    1.0159   -2.3984 H   0  0  0  0  0  0  0  0  0  0  0  0
   -8.1749   -0.6992   -2.0188 H   0  0  0  0  0  0  0  0  0  0  0  0
  -10.0583   -0.7116   -0.0311 C   0  0  0  0  0  0  0  0  0  0  0  0
   -9.8696    1.3652   -0.5309 H   0  0  0  0  0  0  0  0  0  0  0  0
  -10.4605    1.1508   -2.9440 H   0  0  0  0  0  0  0  0  0  0  0  0
  -10.6543   -0.5842   -2.7509 H   0  0  0  0  0  0  0  0  0  0  0  0
  -12.4925    1.8935   -1.1338 C   0  0  0  0  0  0  0  0  0  0  0  0
  -12.8057    0.5765   -2.7895 H   0  0  0  0  0  0  0  0  0  0  0  0
  -12.5934   -0.2516   -1.2598 H   0  0  0  0  0  0  0  0  0  0  0  0
   12.7177   -0.7661    3.4572 H   0  0  0  0  0  0  0  0  0  0  0  0
   12.8882    1.2891    2.8899 C   0  0  0  0  0  0  0  0  0  0  0  0
   14.2483   -0.6255    1.9380 C   0  0  0  0  0  0  0  0  0  0  0  0
   14.5405    0.1144    1.1818 H   0  0  0  0  0  0  0  0  0  0  0  0
   14.1535   -1.5834    1.4107 H   0  0  0  0  0  0  0  0  0  0  0  0
   15.3549   -0.7615    3.0080 C   0  0  0  0  0  0  0  0  0  0  0  0
   15.1679   -2.0559    3.8164 C   0  0  0  0  0  0  0  0  0  0  0  0
   15.2757    0.0774    3.7038 H   0  0  0  0  0  0  0  0  0  0  0  0
   16.7528   -0.7310    2.3487 C   0  0  0  0  0  0  0  0  0  0  0  0
   16.7754    0.0118    1.5410 H   0  0  0  0  0  0  0  0  0  0  0  0
   16.9372   -1.7045    1.8768 H   0  0  0  0  0  0  0  0  0  0  0  0
   17.8812   -0.4006    3.3523 C   0  0  0  0  0  0  0  0  0  0  0  0
   17.6983   -0.9503    4.2787 H   0  0  0  0  0  0  0  0  0  0  0  0
   17.8772    1.0985    3.6930 C   0  0  0  0  0  0  0  0  0  0  0  0
   19.2554   -0.8248    2.7847 C   0  0  0  0  0  0  0  0  0  0  0  0
   19.5625   -0.0906    2.0289 H   0  0  0  0  0  0  0  0  0  0  0  0
   19.1692   -1.7863    2.2625 H   0  0  0  0  0  0  0  0  0  0  0  0
   20.3435   -0.9548    3.8768 C   0  0  0  0  0  0  0  0  0  0  0  0
   20.1392   -2.2437    4.6887 C   0  0  0  0  0  0  0  0  0  0  0  0
   20.2499   -0.1112    4.5643 H   0  0  0  0  0  0  0  0  0  0  0  0
   21.7532   -0.9267    3.2415 C   0  0  0  0  0  0  0  0  0  0  0  0
   21.7959   -0.1571    2.4598 H   0  0  0  0  0  0  0  0  0  0  0  0
   21.9274   -1.8864    2.7379 H   0  0  0  0  0  0  0  0  0  0  0  0
   22.8858   -0.6511    4.2611 C   0  0  0  0  0  0  0  0  0  0  0  0
   22.7155   -1.2705    5.1443 H   0  0  0  0  0  0  0  0  0  0  0  0
   22.8712    0.8198    4.7018 C   0  0  0  0  0  0  0  0  0  0  0  0
   24.2534   -1.0314    3.6471 C   0  0  0  0  0  0  0  0  0  0  0  0
   24.4730   -0.3316    2.8298 H   0  0  0  0  0  0  0  0  0  0  0  0
   24.1821   -2.0264    3.1882 H   0  0  0  0  0  0  0  0  0  0  0  0
   25.4351   -1.0405    4.6491 C   0  0  0  0  0  0  0  0  0  0  0  0
   21.9081    1.1052    5.1335 H   0  0  0  0  0  0  0  0  0  0  0  0
   23.0688    1.4866    3.8554 H   0  0  0  0  0  0  0  0  0  0  0  0
   23.6234    1.0173    5.4703 H   0  0  0  0  0  0  0  0  0  0  0  0
   25.2824   -2.1691    5.6754 C   0  0  0  0  0  0  0  0  0  0  0  0
   25.4428   -0.0874    5.1841 H   0  0  0  0  0  0  0  0  0  0  0  0
   26.7659   -1.1651    3.8724 C   0  0  0  0  0  0  0  0  0  0  0  0
   26.7930   -0.3882    3.0963 H   0  0  0  0  0  0  0  0  0  0  0  0
   26.7786   -2.1271    3.3427 H   0  0  0  0  0  0  0  0  0  0  0  0
   28.0492   -1.0470    4.7225 C   0  0  0  0  0  0  0  0  0  0  0  0
   28.0768   -1.8605    5.4561 H   0  0  0  0  0  0  0  0  0  0  0  0
   28.1325    0.2825    5.4750 C   0  0  0  0  0  0  0  0  0  0  0  0
   29.2793   -1.2082    3.8252 C   0  0  0  0  0  0  0  0  0  0  0  0
   29.3266   -0.4179    3.0684 H   0  0  0  0  0  0  0  0  0  0  0  0
   29.2597   -2.1739    3.3092 H   0  0  0  0  0  0  0  0  0  0  0  0
   30.1998   -1.1660    4.4173 H   0  0  0  0  0  0  0  0  0  0  0  0
   27.3532    0.3579    6.2394 H   0  0  0  0  0  0  0  0  0  0  0  0
   28.0256    1.1323    4.7923 H   0  0  0  0  0  0  0  0  0  0  0  0
   29.0950    0.3805    5.9884 H   0  0  0  0  0  0  0  0  0  0  0  0
   25.2672   -3.1484    5.1850 H   0  0  0  0  0  0  0  0  0  0  0  0
   24.3602   -2.0672    6.2540 H   0  0  0  0  0  0  0  0  0  0  0  0
   26.1008   -2.1658    6.4007 H   0  0  0  0  0  0  0  0  0  0  0  0
   20.2268   -3.1297    4.0505 H   0  0  0  0  0  0  0  0  0  0  0  0
   19.1542   -2.2707    5.1629 H   0  0  0  0  0  0  0  0  0  0  0  0
   20.8749   -2.3355    5.4923 H   0  0  0  0  0  0  0  0  0  0  0  0
   16.9248    1.4102    4.1309 H   0  0  0  0  0  0  0  0  0  0  0  0
   18.0482    1.7067    2.7980 H   0  0  0  0  0  0  0  0  0  0  0  0
   18.6542    1.3492    4.4205 H   0  0  0  0  0  0  0  0  0  0  0  0
   15.2289   -2.9374    3.1688 H   0  0  0  0  0  0  0  0  0  0  0  0
   14.1984   -2.0797    4.3218 H   0  0  0  0  0  0  0  0  0  0  0  0
   15.9297   -2.1599    4.5941 H   0  0  0  0  0  0  0  0  0  0  0  0
   11.9432    1.5977    3.3456 H   0  0  0  0  0  0  0  0  0  0  0  0
   13.0468    1.9063    1.9988 H   0  0  0  0  0  0  0  0  0  0  0  0
   13.6763    1.5317    3.6083 H   0  0  0  0  0  0  0  0  0  0  0  0
   10.9353   -1.9321    3.8151 H   0  0  0  0  0  0  0  0  0  0  0  0
   10.2325   -2.7258    2.3997 H   0  0  0  0  0  0  0  0  0  0  0  0
    9.2035   -1.8595    3.5477 H   0  0  0  0  0  0  0  0  0  0  0  0
    8.0474    2.1075    1.2309 H   0  0  0  0  0  0  0  0  0  0  0  0
    8.6620    1.7211    2.8435 H   0  0  0  0  0  0  0  0  0  0  0  0
    6.9318    1.7930    2.5665 H   0  0  0  0  0  0  0  0  0  0  0  0
    5.9207   -1.7264    3.0296 H   0  0  0  0  0  0  0  0  0  0  0  0
    5.2335   -2.5244    1.6090 H   0  0  0  0  0  0  0  0  0  0  0  0
    4.1908   -1.6631    2.7484 H   0  0  0  0  0  0  0  0  0  0  0  0
    3.0489    2.3099    0.4292 H   0  0  0  0  0  0  0  0  0  0  0  0
    3.6549    1.9268    2.0457 H   0  0  0  0  0  0  0  0  0  0  0  0
    1.9260    2.0030    1.7605 H   0  0  0  0  0  0  0  0  0  0  0  0
    0.9234   -1.5333    2.2353 H   0  0  0  0  0  0  0  0  0  0  0  0
    0.2362   -2.3278    0.8129 H   0  0  0  0  0  0  0  0  0  0  0  0
   -0.8076   -1.4764    1.9586 H   0  0  0  0  0  0  0  0  0  0  0  0
   -1.9664    2.5140   -0.3509 H   0  0  0  0  0  0  0  0  0  0  0  0
   -1.3312    2.1410    1.2566 H   0  0  0  0  0  0  0  0  0  0  0  0
   -3.0648    2.2189    1.0035 H   0  0  0  0  0  0  0  0  0  0  0  0
   -7.0710    2.6964   -0.8561 H   0  0  0  0  0  0  0  0  0  0  0  0
   -6.4459    2.1810    0.7161 H   0  0  0  0  0  0  0  0  0  0  0  0
   -8.1735    2.2379    0.4519 H   0  0  0  0  0  0  0  0  0  0  0  0
   -4.7420    0.9241    0.5938 H   0  0  0  0  0  0  0  0  0  0  0  0
   -4.0692   -1.2994    1.5111 H   0  0  0  0  0  0  0  0  0  0  0  0
   -4.8174   -2.1004    0.1238 H   0  0  0  0  0  0  0  0  0  0  0  0
   -5.8054   -1.2122    1.2928 H   0  0  0  0  0  0  0  0  0  0  0  0
   -9.3925   -0.6631    0.8351 H   0  0  0  0  0  0  0  0  0  0  0  0
   -9.9460   -1.6995   -0.4903 H   0  0  0  0  0  0  0  0  0  0  0  0
  -11.0767   -0.6336    0.3604 H   0  0  0  0  0  0  0  0  0  0  0  0
  -12.0878    2.7447   -1.6903 H   0  0  0  0  0  0  0  0  0  0  0  0
  -12.0535    1.8939   -0.1316 H   0  0  0  0  0  0  0  0  0  0  0  0
  -13.5706    2.0443   -1.0191 H   0  0  0  0  0  0  0  0  0  0  0  0
  1  2  1  0  0  0  0
  1 21  1  0  0  0  0
  1 22  1  0  0  0  0
  1 23  1  0  0  0  0
  2  3  1  0  0  0  0
  2 24  1  0  0  0  0
  2 25  1  0  0  0  0
  3  4  1  0  0  0  0
  3 26  1  0  0  0  0
  3 27  1  0  0  0  0
  4  5  1  0  0  0  0
  4 28  1  0  0  0  0
  4 29  1  0  0  0  0
  5  6  1  0  0  0  0
  5 30  1  0  0  0  0
  5 31  1  0  0  0  0
  6  7  1  0  0  0  0
  6 32  1  0  0  0  0
  6 33  1  0  0  0  0
  7  8  1  0  0  0  0
  7 34  1  0  0  0  0
  7 35  1  0  0  0  0
  8  9  1  0  0  0  0
  8 36  1  0  0  0  0
  8 37  1  0  0  0  0
  9 10  1  0  0  0  0
  9 38  1  0  0  0  0
  9 39  1  0  0  0  0
 10 11  1  0  0  0  0
 10 40  1  0  0  0  0
 10 41  1  0  0  0  0
 11 12  1  0  0  0  0
 11 42  1  0  0  0  0
 11 43  1  0  0  0  0
 12 13  1  0  0  0  0
 12 44  1  0  0  0  0
 12 45  1  0  0  0  0
 13 14  1  0  0  0  0
 13 46  1  0  0  0  0
 13 47  1  0  0  0  0
 14 15  1  0  0  0  0
 14 48  1  0  0  0  0
 15 16  1  0  0  0  0
 15 49  1  0  0  0  0
 15 50  1  0  0  0  0
 16 17  1  0  0  0  0
 16 51  1  0  0  0  0
 16 52  1  0  0  0  0
 17 18  1  0  0  0  0
 17 53  1  0  0  0  0
 17 54  1  0  0  0  0
 18 19  1  0  0  0  0
 18 55  1  0  0  0  0
 18 56  1  0  0  0  0
 19 20  1  0  0  0  0
 19 57  1  0  0  0  0
 19 58  1  0  0  0  0
 20 59  1  0  0  0  0
 20 60  1  0  0  0  0
 20 61  1  0  0  0  0
 62 23  1  0  0  0  0
 63 23  1  0  0  0  0
 64 23  1  0  0  0  0
 65 64  1  0  0  0  0
 66 64  1  0  0  0  0
 67 64  1  0  0  0  0
 68 67  1  0  0  0  0
 69 67  1  0  0  0  0
 70 67  1  0  0  0  0
 71 70  1  0  0  0  0
 72 70  1  0  0  0  0
 73 70  1  0  0  0  0
 74 73  1  0  0  0  0
 75 73  1  0  0  0  0
 76 73  1  0  0  0  0
 77 76  1  0  0  0  0
 78 76  1  0  0  0  0
 79 76  1  0  0  0  0
 80 79  1  0  0  0  0
 81 79  1  0  0  0  0
 82 79  1  0  0  0  0
 83 82  1  0  0  0  0
 84 82  1  0  0  0  0
 85 82  1  0  0  0  0
 86 85  1  0  0  0  0
 87 85  1  0  0  0  0
 88 85  1  0  0  0  0
 89 88  1  0  0  0  0
 90 88  1  0  0  0  0
 91 88  1  0  0  0  0
 92 87  1  0  0  0  0
 93 87  1  0  0  0  0
 94 87  1  0  0  0  0
 95 91  1  0  0  0  0
 96 91  1  0  0  0  0
 97 91  1  0  0  0  0
 98 97  1  0  0  0  0
 99 97  1  0  0  0  0
100 97  1  0  0  0  0
101100  1  0  0  0  0
102100  1  0  0  0  0
103100  1  0  0  0  0
104103  1  0  0  0  0
105103  1  0  0  0  0
106103  1  0  0  0  0
107102  1  0  0  0  0
108102  1  0  0  0  0
109102  1  0  0  0  0
110 95  1  0  0  0  0
111 95  1  0  0  0  0
112 95  1  0  0  0  0
113 80  1  0  0  0  0
114 80  1  0  0  0  0
115 80  1  0  0  0  0
116 75  1  0  0  0  0
117 75  1  0  0  0  0
118 75  1  0  0  0  0
119 68  1  0  0  0  0
120 68  1  0  0  0  0
121 68  1  0  0  0  0
122 63  1  0  0  0  0
123 63  1  0  0  0  0
124 63  1  0  0  0  0
125 24  1  0  0  0  0
126 24  1  0  0  0  0
127 24  1  0  0  0  0
128 29  1  0  0  0  0
129 29  1  0  0  0  0
130 29  1  0  0  0  0
131 32  1  0  0  0  0
132 32  1  0  0  0  0
133 32  1  0  0  0  0
134 37  1  0  0  0  0
135 37  1  0  0  0  0
136 37  1  0  0  0  0
137 40  1  0  0  0  0
138 40  1  0  0  0  0
139 40  1  0  0  0  0
140 45  1  0  0  0  0
141 45  1  0  0  0  0
142 45  1  0  0  0  0
143 52  1  0  0  0  0
144 52  1  0  0  0  0
145 52  1  0  0  0  0
146 14  1  0  0  0  0
147 48  1  0  0  0  0
148 48  1  0  0  0  0
149 48  1  0  0  0  0
150 55  1  0  0  0  0
151 55  1  0  0  0  0
152 55  1  0  0  0  0
153 59  1  0  0  0  0
154 59  1  0  0  0  0
155 59  1  0  0  0  0
M  END
