
 OpenBabel06161210283D

 62 61  0  0  0  0  0  0  0  0999 V2000
   -0.1185   -0.2702   -0.2556 C   0  0  0  0  0  0  0  0  0  0  0  0
   -1.0149    0.7298    0.4697 C   0  0  0  0  0  0  0  0  0  0  0  0
   -0.6876   -1.1895   -0.4326 H   0  0  0  0  0  0  0  0  0  0  0  0
    0.1252    0.1198   -1.2521 H   0  0  0  0  0  0  0  0  0  0  0  0
    1.1740   -0.5501    0.5242 C   0  0  0  0  0  0  0  0  0  0  0  0
   -1.3490    0.3196    1.4294 H   0  0  0  0  0  0  0  0  0  0  0  0
   -0.4701    1.6657    0.6413 H   0  0  0  0  0  0  0  0  0  0  0  0
   -2.1592    0.9941   -0.3534 O   0  0  0  0  0  0  0  0  0  0  0  0
   -3.0472    1.8662    0.1986 C   0  0  0  0  0  0  0  0  0  0  0  0
   -2.9233    2.4114    1.2864 O   0  0  0  0  0  0  0  0  0  0  0  0
   -4.2096    2.0699   -0.7235 C   0  0  0  0  0  0  0  0  0  0  0  0
   -4.7197    1.1184   -0.8926 H   0  0  0  0  0  0  0  0  0  0  0  0
   -3.8630    2.4955   -1.6684 H   0  0  0  0  0  0  0  0  0  0  0  0
   -4.9168    2.7674   -0.2654 H   0  0  0  0  0  0  0  0  0  0  0  0
    0.9229   -0.9615    1.8891 O   0  0  0  0  0  0  0  0  0  0  0  0
    1.6902    0.4131    0.6200 H   0  0  0  0  0  0  0  0  0  0  0  0
    2.1227   -1.5098   -0.2184 C   0  0  0  0  0  0  0  0  0  0  0  0
    2.2953   -1.1172   -1.2265 H   0  0  0  0  0  0  0  0  0  0  0  0
    1.6513   -2.4901   -0.3478 H   0  0  0  0  0  0  0  0  0  0  0  0
    3.4634   -1.7044    0.5156 C   0  0  0  0  0  0  0  0  0  0  0  0
    0.2627   -2.1253    2.1353 C   0  0  0  0  0  0  0  0  0  0  0  0
   -0.1573   -2.9025    1.2926 O   0  0  0  0  0  0  0  0  0  0  0  0
    0.1168   -2.3235    3.6127 C   0  0  0  0  0  0  0  0  0  0  0  0
   -0.4849   -1.5158    4.0368 H   0  0  0  0  0  0  0  0  0  0  0  0
    1.1035   -2.3573    4.0815 H   0  0  0  0  0  0  0  0  0  0  0  0
   -0.3904   -3.2739    3.8023 H   0  0  0  0  0  0  0  0  0  0  0  0
    3.2349   -2.1231    1.5028 H   0  0  0  0  0  0  0  0  0  0  0  0
    4.1226   -0.4450    0.7983 O   0  0  0  0  0  0  0  0  0  0  0  0
    4.3887   -2.7099   -0.1970 C   0  0  0  0  0  0  0  0  0  0  0  0
    4.5639    0.3371   -0.2228 C   0  0  0  0  0  0  0  0  0  0  0  0
    4.4590    0.0874   -1.4135 O   0  0  0  0  0  0  0  0  0  0  0  0
    5.2123    1.5708    0.3252 C   0  0  0  0  0  0  0  0  0  0  0  0
    4.5924   -2.3787   -1.2214 H   0  0  0  0  0  0  0  0  0  0  0  0
    3.8594   -3.6649   -0.2866 H   0  0  0  0  0  0  0  0  0  0  0  0
    5.7336   -2.9031    0.5299 C   0  0  0  0  0  0  0  0  0  0  0  0
    5.5731   -3.2711    1.9197 O   0  0  0  0  0  0  0  0  0  0  0  0
    6.2194   -1.9218    0.5595 H   0  0  0  0  0  0  0  0  0  0  0  0
    6.6847   -3.8470   -0.2230 C   0  0  0  0  0  0  0  0  0  0  0  0
    6.8543   -3.4647   -1.2384 H   0  0  0  0  0  0  0  0  0  0  0  0
    6.2162   -4.8284   -0.3652 H   0  0  0  0  0  0  0  0  0  0  0  0
    8.0379   -4.0623    0.4742 C   0  0  0  0  0  0  0  0  0  0  0  0
    4.9927   -4.4588    2.2421 C   0  0  0  0  0  0  0  0  0  0  0  0
    6.0581    1.2941    0.9596 H   0  0  0  0  0  0  0  0  0  0  0  0
    4.4807    2.1545    0.8893 H   0  0  0  0  0  0  0  0  0  0  0  0
    5.5844    2.1820   -0.5022 H   0  0  0  0  0  0  0  0  0  0  0  0
    4.5549   -5.2795    1.4512 O   0  0  0  0  0  0  0  0  0  0  0  0
    4.9536   -4.6176    3.7307 C   0  0  0  0  0  0  0  0  0  0  0  0
    4.3288   -3.8359    4.1699 H   0  0  0  0  0  0  0  0  0  0  0  0
    5.9680   -4.5742    4.1354 H   0  0  0  0  0  0  0  0  0  0  0  0
    4.5228   -5.5917    3.9799 H   0  0  0  0  0  0  0  0  0  0  0  0
    7.8672   -4.4915    1.4684 H   0  0  0  0  0  0  0  0  0  0  0  0
    8.8485   -2.7730    0.5911 C   0  0  0  0  0  0  0  0  0  0  0  0
    8.7795   -4.9985   -0.3391 O   0  0  0  0  0  0  0  0  0  0  0  0
    8.3670   -2.0494    1.2546 H   0  0  0  0  0  0  0  0  0  0  0  0
    8.9882   -2.3106   -0.3922 H   0  0  0  0  0  0  0  0  0  0  0  0
    9.8498   -2.9737    0.9859 H   0  0  0  0  0  0  0  0  0  0  0  0
    9.7199   -5.7399    0.3087 C   0  0  0  0  0  0  0  0  0  0  0  0
    9.9799   -5.6783    1.5020 O   0  0  0  0  0  0  0  0  0  0  0  0
   10.3993   -6.6612   -0.6574 C   0  0  0  0  0  0  0  0  0  0  0  0
   10.8119   -6.0871   -1.4911 H   0  0  0  0  0  0  0  0  0  0  0  0
    9.6884   -7.4082   -1.0182 H   0  0  0  0  0  0  0  0  0  0  0  0
   11.2237   -7.1718   -0.1516 H   0  0  0  0  0  0  0  0  0  0  0  0
  1  2  1  0  0  0  0
  1  3  1  0  0  0  0
  1  4  1  0  0  0  0
  1  5  1  0  0  0  0
  2  6  1  0  0  0  0
  2  7  1  0  0  0  0
  2  8  1  0  0  0  0
  9  8  1  0  0  0  0
 10  9  2  0  0  0  0
 11  9  1  0  0  0  0
 12 11  1  0  0  0  0
 13 11  1  0  0  0  0
 14 11  1  0  0  0  0
 15  5  1  0  0  0  0
 16  5  1  0  0  0  0
 17  5  1  0  0  0  0
 18 17  1  0  0  0  0
 19 17  1  0  0  0  0
 20 17  1  0  0  0  0
 21 15  1  0  0  0  0
 22 21  2  0  0  0  0
 23 21  1  0  0  0  0
 24 23  1  0  0  0  0
 25 23  1  0  0  0  0
 26 23  1  0  0  0  0
 27 20  1  0  0  0  0
 28 20  1  0  0  0  0
 29 20  1  0  0  0  0
 30 28  1  0  0  0  0
 31 30  2  0  0  0  0
 32 30  1  0  0  0  0
 33 29  1  0  0  0  0
 34 29  1  0  0  0  0
 35 29  1  0  0  0  0
 36 35  1  0  0  0  0
 37 35  1  0  0  0  0
 38 35  1  0  0  0  0
 39 38  1  0  0  0  0
 40 38  1  0  0  0  0
 41 38  1  0  0  0  0
 42 36  1  0  0  0  0
 43 32  1  0  0  0  0
 44 32  1  0  0  0  0
 45 32  1  0  0  0  0
 46 42  2  0  0  0  0
 47 42  1  0  0  0  0
 48 47  1  0  0  0  0
 49 47  1  0  0  0  0
 50 47  1  0  0  0  0
 51 41  1  0  0  0  0
 52 41  1  0  0  0  0
 53 41  1  0  0  0  0
 54 52  1  0  0  0  0
 55 52  1  0  0  0  0
 56 52  1  0  0  0  0
 57 53  1  0  0  0  0
 58 57  2  0  0  0  0
 59 57  1  0  0  0  0
 60 59  1  0  0  0  0
 61 59  1  0  0  0  0
 62 59  1  0  0  0  0
M  END
