
 OpenBabel06251217413D

 12 11  0  0  0  0  0  0  0  0999 V2000
   -0.3141   -0.1217   -0.4773 C   0  0  0  0  0  0  0  0  0  0  0  0
    1.0157    0.5595   -1.5763 Si  0  0  0  0  0  0  0  0  0  0  0  0
    2.4655   -0.2299   -1.3636 O   0  0  0  0  0  0  0  0  0  0  0  0
    1.2718    1.9614   -1.1742 H   0  0  0  0  0  0  0  0  0  0  0  0
    0.4811    0.5668   -3.3531 C   0  0  0  0  0  0  0  0  0  0  0  0
   -0.0126   -0.0814    0.5735 H   0  0  0  0  0  0  0  0  0  0  0  0
   -0.5323   -1.1651   -0.7244 H   0  0  0  0  0  0  0  0  0  0  0  0
   -1.2417    0.4496   -0.5823 H   0  0  0  0  0  0  0  0  0  0  0  0
   -0.4400    1.1436   -3.4834 H   0  0  0  0  0  0  0  0  0  0  0  0
    0.2940   -0.4500   -3.7116 H   0  0  0  0  0  0  0  0  0  0  0  0
    1.2490    1.0125   -3.9921 H   0  0  0  0  0  0  0  0  0  0  0  0
    3.2277    0.3326   -1.1510 H   0  0  0  0  0  0  0  0  0  0  0  0
  1  2  1  0  0  0  0
  3  2  1  0  0  0  0
  4  2  1  0  0  0  0
  5  2  1  0  0  0  0
  6  1  1  0  0  0  0
  7  1  1  0  0  0  0
  8  1  1  0  0  0  0
  9  5  1  0  0  0  0
 10  5  1  0  0  0  0
 11  5  1  0  0  0  0
 12  3  1  0  0  0  0
M  END
