
 OpenBabel06161210343D

 38 37  0  0  0  0  0  0  0  0999 V2000
   -0.0070   -0.3316    0.6001 C   0  0  0  0  0  0  0  0  0  0  0  0
    0.5532    0.4003   -0.6153 C   0  0  0  0  0  0  0  0  0  0  0  0
    0.0473   -1.4103    0.4140 H   0  0  0  0  0  0  0  0  0  0  0  0
    0.6470   -0.1516    1.4631 H   0  0  0  0  0  0  0  0  0  0  0  0
   -1.4397    0.1064    0.9357 C   0  0  0  0  0  0  0  0  0  0  0  0
   -0.0210    0.1491   -1.5142 H   0  0  0  0  0  0  0  0  0  0  0  0
    0.5219    1.4836   -0.4494 H   0  0  0  0  0  0  0  0  0  0  0  0
    1.9155   -0.0126   -0.7942 O   0  0  0  0  0  0  0  0  0  0  0  0
    2.5395    0.5707   -1.8542 C   0  0  0  0  0  0  0  0  0  0  0  0
    2.0358    1.3874   -2.6121 O   0  0  0  0  0  0  0  0  0  0  0  0
    3.9468    0.0692   -1.9606 C   0  0  0  0  0  0  0  0  0  0  0  0
    3.9442   -1.0125   -2.1162 H   0  0  0  0  0  0  0  0  0  0  0  0
    4.5016    0.3270   -1.0550 H   0  0  0  0  0  0  0  0  0  0  0  0
    4.4366    0.5431   -2.8161 H   0  0  0  0  0  0  0  0  0  0  0  0
   -2.3376   -0.0013   -0.1921 O   0  0  0  0  0  0  0  0  0  0  0  0
   -1.3924    1.1812    1.1489 H   0  0  0  0  0  0  0  0  0  0  0  0
   -1.9788   -0.5876    2.1962 C   0  0  0  0  0  0  0  0  0  0  0  0
   -1.3244   -0.3577    3.0480 H   0  0  0  0  0  0  0  0  0  0  0  0
   -1.9190   -1.6774    2.0844 H   0  0  0  0  0  0  0  0  0  0  0  0
   -3.4288   -0.2294    2.5545 C   0  0  0  0  0  0  0  0  0  0  0  0
   -2.6155   -1.2240   -0.7207 C   0  0  0  0  0  0  0  0  0  0  0  0
   -2.1647   -2.2902   -0.3320 O   0  0  0  0  0  0  0  0  0  0  0  0
   -3.5709   -1.0768   -1.8653 C   0  0  0  0  0  0  0  0  0  0  0  0
   -3.1236   -0.4530   -2.6432 H   0  0  0  0  0  0  0  0  0  0  0  0
   -4.5079   -0.6397   -1.5114 H   0  0  0  0  0  0  0  0  0  0  0  0
   -3.7837   -2.0625   -2.2888 H   0  0  0  0  0  0  0  0  0  0  0  0
   -3.6061    1.2532    2.8709 C   0  0  0  0  0  0  0  0  0  0  0  0
   -3.7589   -0.9947    3.7349 O   0  0  0  0  0  0  0  0  0  0  0  0
   -4.0878   -0.5199    1.7279 H   0  0  0  0  0  0  0  0  0  0  0  0
   -2.9293    1.5636    3.6746 H   0  0  0  0  0  0  0  0  0  0  0  0
   -4.6225    1.4586    3.2229 H   0  0  0  0  0  0  0  0  0  0  0  0
   -3.4217    1.8797    1.9940 H   0  0  0  0  0  0  0  0  0  0  0  0
   -5.0756   -1.2954    3.9077 C   0  0  0  0  0  0  0  0  0  0  0  0
   -5.2541   -2.1031    5.1564 C   0  0  0  0  0  0  0  0  0  0  0  0
   -5.9872   -0.9625    3.1642 O   0  0  0  0  0  0  0  0  0  0  0  0
   -4.7219   -3.0529    5.0624 H   0  0  0  0  0  0  0  0  0  0  0  0
   -6.3177   -2.3109    5.3047 H   0  0  0  0  0  0  0  0  0  0  0  0
   -4.8877   -1.5397    6.0183 H   0  0  0  0  0  0  0  0  0  0  0  0
  1  2  1  0  0  0  0
  1  3  1  0  0  0  0
  1  4  1  0  0  0  0
  1  5  1  0  0  0  0
  2  6  1  0  0  0  0
  2  7  1  0  0  0  0
  2  8  1  0  0  0  0
  9  8  1  0  0  0  0
 10  9  2  0  0  0  0
 11  9  1  0  0  0  0
 12 11  1  0  0  0  0
 13 11  1  0  0  0  0
 14 11  1  0  0  0  0
 15  5  1  0  0  0  0
 16  5  1  0  0  0  0
 17  5  1  0  0  0  0
 18 17  1  0  0  0  0
 19 17  1  0  0  0  0
 20 17  1  0  0  0  0
 20 27  1  0  0  0  0
 20 28  1  0  0  0  0
 20 29  1  0  0  0  0
 21 15  1  0  0  0  0
 22 21  2  0  0  0  0
 23 21  1  0  0  0  0
 24 23  1  0  0  0  0
 25 23  1  0  0  0  0
 26 23  1  0  0  0  0
 27 30  1  0  0  0  0
 27 31  1  0  0  0  0
 27 32  1  0  0  0  0
 28 33  1  0  0  0  0
 33 34  1  0  0  0  0
 33 35  2  0  0  0  0
 34 36  1  0  0  0  0
 34 37  1  0  0  0  0
 34 38  1  0  0  0  0
M  END
