
 OpenBabel10101311173D

135134  0  0  1  0  0  0  0  0999 V2000
    0.1578   -0.0600   -0.1546 C   0  0  1  0  0  0  0  0  0  0  0  0
    0.5920   -1.5150    0.1425 C   0  0  0  0  0  0  0  0  0  0  0  0
    1.2599    0.8653    0.1825 C   0  0  0  0  0  0  0  0  0  0  0  0
   -0.2309    0.1153   -1.6419 C   0  0  0  0  0  0  0  0  0  0  0  0
   -0.7098    0.1836    0.4681 H   0  0  0  0  0  0  0  0  0  0  0  0
    0.7175   -1.7913    1.6596 C   0  0  1  0  0  0  0  0  0  0  0  0
    1.5544   -1.7133   -0.3482 H   0  0  0  0  0  0  0  0  0  0  0  0
   -0.1358   -2.2122   -0.2938 H   0  0  0  0  0  0  0  0  0  0  0  0
    2.1376    1.5794    0.4302 N   0  0  0  0  0  0  0  0  0  0  0  0
   -0.8972   -0.7028   -1.9468 H   0  0  0  0  0  0  0  0  0  0  0  0
    0.6711    0.0379   -2.2637 H   0  0  0  0  0  0  0  0  0  0  0  0
   -0.9299    1.4695   -1.9093 C   0  0  2  0  0  0  0  0  0  0  0  0
   -0.3363    2.2689   -1.4526 H   0  0  0  0  0  0  0  0  0  0  0  0
   -2.2735    1.4640   -1.2935 C   0  0  0  0  0  0  0  0  0  0  0  0
   -1.0552    1.7459   -3.4267 C   0  0  0  0  0  0  0  0  0  0  0  0
   -0.6258   -1.7943    2.2759 C   0  0  0  0  0  0  0  0  0  0  0  0
    1.3126   -0.9926    2.1155 H   0  0  0  0  0  0  0  0  0  0  0  0
    1.4145   -3.1469    1.9262 C   0  0  0  0  0  0  0  0  0  0  0  0
    2.3153   -3.2261    1.3029 H   0  0  0  0  0  0  0  0  0  0  0  0
    0.7462   -3.9639    1.6227 H   0  0  0  0  0  0  0  0  0  0  0  0
    1.8052   -3.3222    3.4130 C   0  0  2  0  0  0  0  0  0  0  0  0
   -3.3324    1.4408   -0.8248 N   0  0  0  0  0  0  0  0  0  0  0  0
   -1.6848   -1.8149    2.7445 N   0  0  0  0  0  0  0  0  0  0  0  0
   -1.4859    3.2024   -3.7224 C   0  0  1  0  0  0  0  0  0  0  0  0
   -0.3796    4.1235   -3.3871 C   0  0  0  0  0  0  0  0  0  0  0  0
   -2.3506    3.4479   -3.0964 H   0  0  0  0  0  0  0  0  0  0  0  0
   -1.8790    3.3827   -5.2085 C   0  0  0  0  0  0  0  0  0  0  0  0
    0.9386   -3.0769    4.0363 H   0  0  0  0  0  0  0  0  0  0  0  0
    2.9084   -2.3972    3.7476 C   0  0  0  0  0  0  0  0  0  0  0  0
    2.2389   -4.7774    3.7124 C   0  0  0  0  0  0  0  0  0  0  0  0
    3.2028   -4.9760    3.2250 H   0  0  0  0  0  0  0  0  0  0  0  0
    1.5125   -5.4752    3.2748 H   0  0  0  0  0  0  0  0  0  0  0  0
    2.3594   -5.0506    5.2309 C   0  0  1  0  0  0  0  0  0  0  0  0
    0.5013    4.8338   -3.1403 N   0  0  0  0  0  0  0  0  0  0  0  0
    3.7865   -1.6828    3.9929 N   0  0  0  0  0  0  0  0  0  0  0  0
   -2.5458    2.5653   -5.5145 H   0  0  0  0  0  0  0  0  0  0  0  0
   -0.9788    3.3083   -5.8333 H   0  0  0  0  0  0  0  0  0  0  0  0
   -2.5797    4.7382   -5.4671 C   0  0  2  0  0  0  0  0  0  0  0  0
   -1.9871    5.5343   -5.0035 H   0  0  0  0  0  0  0  0  0  0  0  0
   -3.9231    4.7261   -4.8508 C   0  0  0  0  0  0  0  0  0  0  0  0
   -2.7065    5.0295   -6.9821 C   0  0  0  0  0  0  0  0  0  0  0  0
    1.0131   -5.0571    5.8409 C   0  0  0  0  0  0  0  0  0  0  0  0
    2.9484   -4.2475    5.6870 H   0  0  0  0  0  0  0  0  0  0  0  0
    3.0613   -6.4021    5.5080 C   0  0  0  0  0  0  0  0  0  0  0  0
    3.9620   -6.4836    4.8850 H   0  0  0  0  0  0  0  0  0  0  0  0
    2.3955   -7.2240    5.2122 H   0  0  0  0  0  0  0  0  0  0  0  0
    3.4533   -6.5616    6.9972 C   0  0  2  0  0  0  0  0  0  0  0  0
   -4.9815    4.6975   -4.3810 N   0  0  0  0  0  0  0  0  0  0  0  0
   -0.0483   -5.0797    6.3039 N   0  0  0  0  0  0  0  0  0  0  0  0
   -3.4392    4.3409   -7.4239 H   0  0  0  0  0  0  0  0  0  0  0  0
   -1.7461    4.8307   -7.4764 H   0  0  0  0  0  0  0  0  0  0  0  0
   -3.1330    6.4913   -7.2623 C   0  0  1  0  0  0  0  0  0  0  0  0
   -2.0219    7.4043   -6.9211 C   0  0  0  0  0  0  0  0  0  0  0  0
   -3.9946    6.7333   -6.6307 H   0  0  0  0  0  0  0  0  0  0  0  0
   -3.5307    6.6911   -8.7451 C   0  0  0  0  0  0  0  0  0  0  0  0
    2.5872   -6.3073    7.6177 H   0  0  0  0  0  0  0  0  0  0  0  0
    4.5577   -5.6336    7.3196 C   0  0  0  0  0  0  0  0  0  0  0  0
    3.8862   -8.0131    7.3174 C   0  0  0  0  0  0  0  0  0  0  0  0
    4.8519   -8.2180    6.8362 H   0  0  0  0  0  0  0  0  0  0  0  0
    3.1614   -8.7164    6.8859 H   0  0  0  0  0  0  0  0  0  0  0  0
    4.0008   -8.2667    8.8410 C   0  0  1  0  0  0  0  0  0  0  0  0
   -1.1368    8.1080   -6.6700 N   0  0  0  0  0  0  0  0  0  0  0  0
    5.4367   -4.9170    7.5550 N   0  0  0  0  0  0  0  0  0  0  0  0
   -1.7850    1.0506   -3.8628 H   0  0  0  0  0  0  0  0  0  0  0  0
   -0.0936    1.5454   -3.9178 H   0  0  0  0  0  0  0  0  0  0  0  0
   -4.2018    5.8798   -9.0577 H   0  0  0  0  0  0  0  0  0  0  0  0
   -2.6331    6.6199   -9.3739 H   0  0  0  0  0  0  0  0  0  0  0  0
   -4.2275    8.0534   -8.9875 C   0  0  2  0  0  0  0  0  0  0  0  0
   -3.6298    8.8431   -8.5196 H   0  0  0  0  0  0  0  0  0  0  0  0
   -5.5685    8.0391   -8.3664 C   0  0  0  0  0  0  0  0  0  0  0  0
   -4.3592    8.3583  -10.4993 C   0  0  0  0  0  0  0  0  0  0  0  0
    2.6512   -8.2689    9.4436 C   0  0  0  0  0  0  0  0  0  0  0  0
    4.5861   -7.4567    9.2896 H   0  0  0  0  0  0  0  0  0  0  0  0
    4.7041   -9.6130    9.1394 C   0  0  0  0  0  0  0  0  0  0  0  0
    5.6110   -9.6966    8.5253 H   0  0  0  0  0  0  0  0  0  0  0  0
    4.0441  -10.4394    8.8430 H   0  0  0  0  0  0  0  0  0  0  0  0
    5.0836   -9.7631   10.6345 C   0  0  2  0  0  0  0  0  0  0  0  0
    1.5866   -8.2883    9.8995 N   0  0  0  0  0  0  0  0  0  0  0  0
   -6.6251    8.0070   -7.8930 N   0  0  0  0  0  0  0  0  0  0  0  0
   -5.0860    7.6662  -10.9456 H   0  0  0  0  0  0  0  0  0  0  0  0
   -3.3976    8.1699  -10.9954 H   0  0  0  0  0  0  0  0  0  0  0  0
   -4.7986    9.8190  -10.7755 C   0  0  1  0  0  0  0  0  0  0  0  0
   -3.6998   10.7414  -10.4226 C   0  0  0  0  0  0  0  0  0  0  0  0
   -5.6696   10.0495  -10.1527 H   0  0  0  0  0  0  0  0  0  0  0  0
   -5.1822   10.0121  -12.2624 C   0  0  0  0  0  0  0  0  0  0  0  0
   -2.8224   11.4518  -10.1634 N   0  0  0  0  0  0  0  0  0  0  0  0
    4.2103   -9.5139   11.2467 H   0  0  0  0  0  0  0  0  0  0  0  0
    6.1799   -8.8283   10.9626 C   0  0  0  0  0  0  0  0  0  0  0  0
    5.5225  -11.2118   10.9573 C   0  0  0  0  0  0  0  0  0  0  0  0
    6.4797  -11.4185   10.4596 H   0  0  0  0  0  0  0  0  0  0  0  0
    4.7906  -11.9152   10.5374 H   0  0  0  0  0  0  0  0  0  0  0  0
    5.6658  -11.4753   12.4789 C   0  0  1  0  0  0  0  0  0  0  0  0
    7.0542   -8.1069   11.2010 N   0  0  0  0  0  0  0  0  0  0  0  0
   -5.8559   11.3801  -12.5461 C   0  0  2  0  0  0  0  0  0  0  0  0
   -5.2303   12.1770  -12.1300 H   0  0  0  0  0  0  0  0  0  0  0  0
   -7.1833   11.4226  -11.9008 C   0  0  0  0  0  0  0  0  0  0  0  0
   -6.0046   11.6043  -14.0700 C   0  0  0  0  0  0  0  0  0  0  0  0
   -8.2297   11.4334  -11.4041 N   0  0  0  0  0  0  0  0  0  0  0  0
    4.3334  -11.4403   13.1150 C   0  0  0  0  0  0  0  0  0  0  0  0
    6.3337  -12.8475   12.7344 C   0  0  0  0  0  0  0  0  0  0  0  0
    7.2529  -12.9151   12.1361 H   0  0  0  0  0  0  0  0  0  0  0  0
    5.6668  -13.6433   12.3754 H   0  0  0  0  0  0  0  0  0  0  0  0
    6.6791  -13.1076   14.2236 C   0  0  2  0  0  0  0  0  0  0  0  0
   -5.8629    9.2060  -12.5683 H   0  0  0  0  0  0  0  0  0  0  0  0
   -4.2808    9.9152  -12.8828 H   0  0  0  0  0  0  0  0  0  0  0  0
    6.2912  -10.6902   12.9172 H   0  0  0  0  0  0  0  0  0  0  0  0
    3.2795  -11.4269   13.5954 N   0  0  0  0  0  0  0  0  0  0  0  0
   -6.6937   10.8515  -14.4768 H   0  0  0  0  0  0  0  0  0  0  0  0
   -5.0325   11.4320  -14.5523 H   0  0  0  0  0  0  0  0  0  0  0  0
   -6.5153   13.0173  -14.4535 C   0  0  1  0  0  0  0  0  0  0  0  0
   -5.5103   14.0335  -14.0845 C   0  0  0  0  0  0  0  0  0  0  0  0
   -7.4462   13.2201  -13.9126 H   0  0  0  0  0  0  0  0  0  0  0  0
   -6.7958   13.0817  -15.9722 C   0  0  0  0  0  0  0  0  0  0  0  0
   -4.7056   14.8208  -13.8100 N   0  0  0  0  0  0  0  0  0  0  0  0
    5.7798  -12.9544   14.8300 H   0  0  0  0  0  0  0  0  0  0  0  0
    7.7278  -12.1681   14.6677 C   0  0  0  0  0  0  0  0  0  0  0  0
    7.1671  -14.5639   14.4089 C   0  0  0  0  0  0  0  0  0  0  0  0
    8.1071  -14.6998   13.8560 H   0  0  0  0  0  0  0  0  0  0  0  0
    6.4355  -15.2450   13.9528 H   0  0  0  0  0  0  0  0  0  0  0  0
    7.3877  -14.9752   15.8827 C   0  0  1  0  0  0  0  0  0  0  0  0
    8.5664  -11.4406   14.9999 N   0  0  0  0  0  0  0  0  0  0  0  0
   -7.4484   12.2445  -16.2537 H   0  0  0  0  0  0  0  0  0  0  0  0
   -5.8553   12.9451  -16.5228 H   0  0  0  0  0  0  0  0  0  0  0  0
   -7.4412   14.3938  -16.4432 C   0  0  0  0  0  0  0  0  0  0  0  0
   -6.8288   15.2555  -16.1579 H   0  0  0  0  0  0  0  0  0  0  0  0
   -8.8049   14.5473  -15.9205 C   0  0  0  0  0  0  0  0  0  0  0  0
   -7.4816   14.3885  -17.5387 H   0  0  0  0  0  0  0  0  0  0  0  0
   -9.8770   14.6411  -15.4896 N   0  0  0  0  0  0  0  0  0  0  0  0
    6.1080  -14.9981   16.6152 C   0  0  0  0  0  0  0  0  0  0  0  0
    8.0631  -14.2625   16.3698 H   0  0  0  0  0  0  0  0  0  0  0  0
    8.0416  -16.3555   15.9529 C   0  0  0  0  0  0  0  0  0  0  0  0
    9.0120  -16.3522   15.4455 H   0  0  0  0  0  0  0  0  0  0  0  0
    7.4141  -17.1215   15.4829 H   0  0  0  0  0  0  0  0  0  0  0  0
    8.2084  -16.6565   16.9934 H   0  0  0  0  0  0  0  0  0  0  0  0
    5.0865  -15.0018   17.1636 N   0  0  0  0  0  0  0  0  0  0  0  0
  1  2  1  0  0  0  0
  1  3  1  0  0  0  0
  1  4  1  0  0  0  0
  1  5  1  1  0  0  0
  6  2  1  0  0  0  0
  6 17  1  1  0  0  0
  7  2  1  0  0  0  0
  8  2  1  0  0  0  0
  9  3  3  0  0  0  0
 10  4  1  0  0  0  0
 11  4  1  0  0  0  0
 12  4  1  0  0  0  0
 12 13  1  1  0  0  0
 14 12  1  0  0  0  0
 15 12  1  0  0  0  0
 16  6  1  0  0  0  0
 18  6  1  0  0  0  0
 19 18  1  0  0  0  0
 20 18  1  0  0  0  0
 21 18  1  0  0  0  0
 21 28  1  1  0  0  0
 22 14  3  0  0  0  0
 23 16  3  0  0  0  0
 24 15  1  0  0  0  0
 24 26  1  1  0  0  0
 25 24  1  0  0  0  0
 27 24  1  0  0  0  0
 29 21  1  0  0  0  0
 30 21  1  0  0  0  0
 31 30  1  0  0  0  0
 32 30  1  0  0  0  0
 33 30  1  0  0  0  0
 33 43  1  1  0  0  0
 34 25  3  0  0  0  0
 35 29  3  0  0  0  0
 36 27  1  0  0  0  0
 37 27  1  0  0  0  0
 38 27  1  0  0  0  0
 38 39  1  1  0  0  0
 40 38  1  0  0  0  0
 41 38  1  0  0  0  0
 42 33  1  0  0  0  0
 44 33  1  0  0  0  0
 45 44  1  0  0  0  0
 46 44  1  0  0  0  0
 47 44  1  0  0  0  0
 47 56  1  1  0  0  0
 48 40  3  0  0  0  0
 49 42  3  0  0  0  0
 50 41  1  0  0  0  0
 51 41  1  0  0  0  0
 52 41  1  0  0  0  0
 52 54  1  1  0  0  0
 53 52  1  0  0  0  0
 55 52  1  0  0  0  0
 57 47  1  0  0  0  0
 58 47  1  0  0  0  0
 59 58  1  0  0  0  0
 60 58  1  0  0  0  0
 61 58  1  0  0  0  0
 61 73  1  1  0  0  0
 62 53  3  0  0  0  0
 63 57  3  0  0  0  0
 64 15  1  0  0  0  0
 65 15  1  0  0  0  0
 66 55  1  0  0  0  0
 67 55  1  0  0  0  0
 68 55  1  0  0  0  0
 68 69  1  1  0  0  0
 70 68  1  0  0  0  0
 71 68  1  0  0  0  0
 72 61  1  0  0  0  0
 74 61  1  0  0  0  0
 75 74  1  0  0  0  0
 76 74  1  0  0  0  0
 77 74  1  0  0  0  0
 77 87  1  1  0  0  0
 78 72  3  0  0  0  0
 79 70  3  0  0  0  0
 80 71  1  0  0  0  0
 81 71  1  0  0  0  0
 82 71  1  0  0  0  0
 82 84  1  1  0  0  0
 83 82  1  0  0  0  0
 85 82  1  0  0  0  0
 86 83  3  0  0  0  0
 88 77  1  0  0  0  0
 89 77  1  0  0  0  0
 90 89  1  0  0  0  0
 91 89  1  0  0  0  0
 92 89  1  0  0  0  0
 92106  1  1  0  0  0
 93 88  3  0  0  0  0
 94 85  1  0  0  0  0
 94 95  1  1  0  0  0
 96 94  1  0  0  0  0
 97 94  1  0  0  0  0
 98 96  3  0  0  0  0
 99 92  1  0  0  0  0
100 92  1  0  0  0  0
101100  1  0  0  0  0
102100  1  0  0  0  0
103100  1  0  0  0  0
103115  1  1  0  0  0
104 85  1  0  0  0  0
105 85  1  0  0  0  0
107 99  3  0  0  0  0
108 97  1  0  0  0  0
109 97  1  0  0  0  0
110 97  1  0  0  0  0
110112  1  1  0  0  0
111110  1  0  0  0  0
113110  1  0  0  0  0
114111  3  0  0  0  0
116103  1  0  0  0  0
117103  1  0  0  0  0
118117  1  0  0  0  0
119117  1  0  0  0  0
120117  1  0  0  0  0
120130  1  1  0  0  0
121116  3  0  0  0  0
122113  1  0  0  0  0
123113  1  0  0  0  0
124113  1  0  0  0  0
125124  1  0  0  0  0
126124  1  0  0  0  0
127124  1  0  0  0  0
128126  3  0  0  0  0
129120  1  0  0  0  0
131120  1  0  0  0  0
132131  1  0  0  0  0
133131  1  0  0  0  0
134131  1  0  0  0  0
135129  3  0  0  0  0
M  END
