
 OpenBabel10311216293D

 65 64  0  0  0  0  0  0  0  0999 V2000
    0.3995    0.0168   -0.0498 C   0  0  0  0  0  0  0  0  0  0  0  0
    1.8369    0.4673    0.1730 C   0  0  0  0  0  0  0  0  0  0  0  0
    2.4865    0.0689   -0.6141 H   0  0  0  0  0  0  0  0  0  0  0  0
    2.2260    0.0859    1.1235 H   0  0  0  0  0  0  0  0  0  0  0  0
    1.9172    1.5584    0.1713 H   0  0  0  0  0  0  0  0  0  0  0  0
    0.3959   -1.4096   -0.0652 O   0  0  0  0  0  0  0  0  0  0  0  0
    0.0710    0.3704   -1.0336 H   0  0  0  0  0  0  0  0  0  0  0  0
   -0.5211    0.5406    1.0607 C   0  0  0  0  0  0  0  0  0  0  0  0
   -0.4258   -1.6829   -0.5090 H   0  0  0  0  0  0  0  0  0  0  0  0
   -0.4430    1.6348    1.0885 H   0  0  0  0  0  0  0  0  0  0  0  0
   -0.1819    0.1544    2.0300 H   0  0  0  0  0  0  0  0  0  0  0  0
   -1.9896    0.1422    0.8625 C   0  0  0  0  0  0  0  0  0  0  0  0
   -2.0674   -0.9504    0.8404 H   0  0  0  0  0  0  0  0  0  0  0  0
   -2.4209    0.6402   -0.4043 O   0  0  0  0  0  0  0  0  0  0  0  0
   -2.8742    0.7128    1.9849 C   0  0  0  0  0  0  0  0  0  0  0  0
   -2.8096    1.8080    1.9849 H   0  0  0  0  0  0  0  0  0  0  0  0
   -2.4884    0.3531    2.9471 H   0  0  0  0  0  0  0  0  0  0  0  0
   -4.3491    0.3094    1.8467 C   0  0  0  0  0  0  0  0  0  0  0  0
   -4.4175   -1.1160    1.7933 O   0  0  0  0  0  0  0  0  0  0  0  0
   -4.7388    0.6997    0.9003 H   0  0  0  0  0  0  0  0  0  0  0  0
   -5.1955    0.8392    3.0181 C   0  0  0  0  0  0  0  0  0  0  0  0
   -3.2618    0.1961   -0.6122 H   0  0  0  0  0  0  0  0  0  0  0  0
   -5.3151   -1.3497    1.4997 H   0  0  0  0  0  0  0  0  0  0  0  0
   -5.0839    1.9298    3.0628 H   0  0  0  0  0  0  0  0  0  0  0  0
   -4.8237    0.4229    3.9624 H   0  0  0  0  0  0  0  0  0  0  0  0
   -6.6832    0.4842    2.8752 C   0  0  0  0  0  0  0  0  0  0  0  0
   -6.7882   -0.6060    2.8638 H   0  0  0  0  0  0  0  0  0  0  0  0
   -7.1378    0.9798    1.6147 O   0  0  0  0  0  0  0  0  0  0  0  0
   -7.5328    1.0748    4.0142 C   0  0  0  0  0  0  0  0  0  0  0  0
   -7.4645    2.1694    4.0000 H   0  0  0  0  0  0  0  0  0  0  0  0
   -7.1273    0.7225    4.9709 H   0  0  0  0  0  0  0  0  0  0  0  0
   -9.0114    0.6693    3.9054 C   0  0  0  0  0  0  0  0  0  0  0  0
   -9.0773   -0.7575    3.8700 O   0  0  0  0  0  0  0  0  0  0  0  0
   -9.4142    1.0462    2.9592 H   0  0  0  0  0  0  0  0  0  0  0  0
   -9.8524    1.2086    5.0745 C   0  0  0  0  0  0  0  0  0  0  0  0
   -8.0026    0.5708    1.4394 H   0  0  0  0  0  0  0  0  0  0  0  0
   -9.9764   -0.9977    3.5871 H   0  0  0  0  0  0  0  0  0  0  0  0
   -9.7445    2.3000    5.1072 H   0  0  0  0  0  0  0  0  0  0  0  0
   -9.4763    0.8030    6.0216 H   0  0  0  0  0  0  0  0  0  0  0  0
  -11.3404    0.8453    4.9367 C   0  0  0  0  0  0  0  0  0  0  0  0
  -11.4413   -0.2453    4.9368 H   0  0  0  0  0  0  0  0  0  0  0  0
  -11.8018    1.3262    3.6736 O   0  0  0  0  0  0  0  0  0  0  0  0
  -12.1889    1.4404    6.0712 C   0  0  0  0  0  0  0  0  0  0  0  0
  -12.1087    2.5344    6.0619 H   0  0  0  0  0  0  0  0  0  0  0  0
  -11.7876    1.0821    7.0275 H   0  0  0  0  0  0  0  0  0  0  0  0
  -13.6742    1.0548    5.9634 C   0  0  0  0  0  0  0  0  0  0  0  0
  -13.7652   -0.3674    5.8853 O   0  0  0  0  0  0  0  0  0  0  0  0
  -14.0856    1.4684    5.0361 H   0  0  0  0  0  0  0  0  0  0  0  0
  -14.4807    1.5744    7.1627 C   0  0  0  0  0  0  0  0  0  0  0  0
  -12.6677    0.9130    3.5092 H   0  0  0  0  0  0  0  0  0  0  0  0
  -14.6763   -0.5798    5.6142 H   0  0  0  0  0  0  0  0  0  0  0  0
  -14.3856    2.6672    7.1919 H   0  0  0  0  0  0  0  0  0  0  0  0
  -14.0575    1.1778    8.0940 H   0  0  0  0  0  0  0  0  0  0  0  0
  -15.9680    1.1913    7.1031 C   0  0  0  0  0  0  0  0  0  0  0  0
  -16.0608    0.1003    7.1502 H   0  0  0  0  0  0  0  0  0  0  0  0
  -16.5049    1.6198    5.8531 O   0  0  0  0  0  0  0  0  0  0  0  0
  -16.7483    1.8236    8.2622 C   0  0  0  0  0  0  0  0  0  0  0  0
  -16.5962    2.9096    8.2743 H   0  0  0  0  0  0  0  0  0  0  0  0
  -16.3499    1.4246    9.2031 H   0  0  0  0  0  0  0  0  0  0  0  0
  -18.2499    1.5600    8.2100 C   0  0  0  0  0  0  0  0  0  0  0  0
  -18.4998    0.1739    8.0260 O   0  0  0  0  0  0  0  0  0  0  0  0
  -18.7170    2.1074    7.3852 H   0  0  0  0  0  0  0  0  0  0  0  0
  -18.7188    1.8824    9.1453 H   0  0  0  0  0  0  0  0  0  0  0  0
  -17.3704    1.1800    5.7597 H   0  0  0  0  0  0  0  0  0  0  0  0
  -19.4553    0.0358    8.1553 H   0  0  0  0  0  0  0  0  0  0  0  0
  1  2  1  0  0  0  0
  3  2  1  0  0  0  0
  4  2  1  0  0  0  0
  5  2  1  0  0  0  0
  6  1  1  0  0  0  0
  7  1  1  0  0  0  0
  8  1  1  0  0  0  0
  9  6  1  0  0  0  0
 10  8  1  0  0  0  0
 11  8  1  0  0  0  0
 12  8  1  0  0  0  0
 13 12  1  0  0  0  0
 14 12  1  0  0  0  0
 15 12  1  0  0  0  0
 16 15  1  0  0  0  0
 17 15  1  0  0  0  0
 18 15  1  0  0  0  0
 19 18  1  0  0  0  0
 20 18  1  0  0  0  0
 21 18  1  0  0  0  0
 22 14  1  0  0  0  0
 23 19  1  0  0  0  0
 24 21  1  0  0  0  0
 25 21  1  0  0  0  0
 26 21  1  0  0  0  0
 27 26  1  0  0  0  0
 28 26  1  0  0  0  0
 29 26  1  0  0  0  0
 30 29  1  0  0  0  0
 31 29  1  0  0  0  0
 32 29  1  0  0  0  0
 33 32  1  0  0  0  0
 34 32  1  0  0  0  0
 35 32  1  0  0  0  0
 36 28  1  0  0  0  0
 37 33  1  0  0  0  0
 38 35  1  0  0  0  0
 39 35  1  0  0  0  0
 40 35  1  0  0  0  0
 41 40  1  0  0  0  0
 42 40  1  0  0  0  0
 43 40  1  0  0  0  0
 44 43  1  0  0  0  0
 45 43  1  0  0  0  0
 46 43  1  0  0  0  0
 47 46  1  0  0  0  0
 48 46  1  0  0  0  0
 49 46  1  0  0  0  0
 50 42  1  0  0  0  0
 51 47  1  0  0  0  0
 52 49  1  0  0  0  0
 53 49  1  0  0  0  0
 54 49  1  0  0  0  0
 55 54  1  0  0  0  0
 56 54  1  0  0  0  0
 57 54  1  0  0  0  0
 58 57  1  0  0  0  0
 59 57  1  0  0  0  0
 60 57  1  0  0  0  0
 61 60  1  0  0  0  0
 62 60  1  0  0  0  0
 63 60  1  0  0  0  0
 64 56  1  0  0  0  0
 65 61  1  0  0  0  0
M  END
