
 OpenBabel10101311133D

 23 22  0  0  1  0  0  0  0  0999 V2000
   -0.0006   -0.0784   -0.0481 C   0  0  1  0  0  0  0  0  0  0  0  0
    1.2799   -0.8506    0.3553 C   0  0  0  0  0  0  0  0  0  0  0  0
    0.2179    0.6294   -1.3246 C   0  0  0  0  0  0  0  0  0  0  0  0
   -1.1796   -1.0708   -0.1880 C   0  0  0  0  0  0  0  0  0  0  0  0
   -0.2405    0.6514    0.7336 H   0  0  0  0  0  0  0  0  0  0  0  0
    2.5089    0.0399    0.6450 C   0  0  1  0  0  0  0  0  0  0  0  0
    1.5376   -1.5565   -0.4473 H   0  0  0  0  0  0  0  0  0  0  0  0
    1.0614   -1.4581    1.2443 H   0  0  0  0  0  0  0  0  0  0  0  0
    0.3941    1.1645   -2.3377 N   0  0  0  0  0  0  0  0  0  0  0  0
   -1.2599   -1.6653    0.7317 H   0  0  0  0  0  0  0  0  0  0  0  0
   -0.9633   -1.7791   -0.9998 H   0  0  0  0  0  0  0  0  0  0  0  0
   -2.5393   -0.4187   -0.4768 C   0  0  0  0  0  0  0  0  0  0  0  0
   -2.4933    0.2002   -1.3788 H   0  0  0  0  0  0  0  0  0  0  0  0
   -3.0165    0.3781    0.6603 C   0  0  0  0  0  0  0  0  0  0  0  0
   -3.2684   -1.2120   -0.6811 H   0  0  0  0  0  0  0  0  0  0  0  0
    2.2801    0.8787    1.8357 C   0  0  0  0  0  0  0  0  0  0  0  0
    2.7073    0.6894   -0.2151 H   0  0  0  0  0  0  0  0  0  0  0  0
    3.7483   -0.8303    0.8637 C   0  0  0  0  0  0  0  0  0  0  0  0
    3.9591   -1.4375   -0.0232 H   0  0  0  0  0  0  0  0  0  0  0  0
    3.6189   -1.5073    1.7160 H   0  0  0  0  0  0  0  0  0  0  0  0
    4.6309   -0.2119    1.0635 H   0  0  0  0  0  0  0  0  0  0  0  0
   -3.3714    1.0028    1.5702 N   0  0  0  0  0  0  0  0  0  0  0  0
    2.0735    1.5305    2.7721 N   0  0  0  0  0  0  0  0  0  0  0  0
  1  2  1  0  0  0  0
  1  3  1  0  0  0  0
  1  4  1  0  0  0  0
  1  5  1  1  0  0  0
  6  2  1  0  0  0  0
  6 17  1  6  0  0  0
  7  2  1  0  0  0  0
  8  2  1  0  0  0  0
  9  3  3  0  0  0  0
 10  4  1  0  0  0  0
 11  4  1  0  0  0  0
 12  4  1  0  0  0  0
 13 12  1  0  0  0  0
 14 12  1  0  0  0  0
 15 12  1  0  0  0  0
 16  6  1  0  0  0  0
 18  6  1  0  0  0  0
 19 18  1  0  0  0  0
 20 18  1  0  0  0  0
 21 18  1  0  0  0  0
 22 14  3  0  0  0  0
 23 16  3  0  0  0  0
M  END
