
 OpenBabel06161210263D

134133  0  0  0  0  0  0  0  0999 V2000
   -5.3904   -1.1474    1.4241 C   0  0  0  0  0  0  0  0  0  0  0  0
   -4.2254   -0.4349    0.7103 C   0  0  0  0  0  0  0  0  0  0  0  0
   -2.8381   -0.9279    1.1650 C   0  0  0  0  0  0  0  0  0  0  0  0
   -1.7003   -0.2509    0.3773 C   0  0  0  0  0  0  0  0  0  0  0  0
   -0.2959   -0.6313    0.8849 C   0  0  0  0  0  0  0  0  0  0  0  0
    0.8165    0.1135    0.1216 C   0  0  0  0  0  0  0  0  0  0  0  0
    2.2363   -0.3018    0.5512 C   0  0  0  0  0  0  0  0  0  0  0  0
    3.3079    0.2668   -0.3997 C   0  0  0  0  0  0  0  0  0  0  0  0
    4.7401    0.0322    0.0995 C   0  0  0  0  0  0  0  0  0  0  0  0
    5.7779    0.6257   -0.8494 C   0  0  0  0  0  0  0  0  0  0  0  0
   -5.3465   -0.9662    2.5033 H   0  0  0  0  0  0  0  0  0  0  0  0
   -6.7603   -0.6772    0.8999 C   0  0  0  0  0  0  0  0  0  0  0  0
   -5.2765   -2.2280    1.2863 H   0  0  0  0  0  0  0  0  0  0  0  0
   -4.3141   -0.6716   -0.3566 H   0  0  0  0  0  0  0  0  0  0  0  0
   -4.3439    1.0099    0.7697 O   0  0  0  0  0  0  0  0  0  0  0  0
   -2.6921   -0.7302    2.2323 H   0  0  0  0  0  0  0  0  0  0  0  0
   -2.7957   -2.0155    1.0424 H   0  0  0  0  0  0  0  0  0  0  0  0
   -1.8441   -0.4303   -1.0549 O   0  0  0  0  0  0  0  0  0  0  0  0
   -1.8072    0.8296    0.5272 H   0  0  0  0  0  0  0  0  0  0  0  0
    0.6375    1.5532    0.1462 O   0  0  0  0  0  0  0  0  0  0  0  0
    3.1116   -0.1760   -1.7661 O   0  0  0  0  0  0  0  0  0  0  0  0
    3.1691    1.3545   -0.4414 H   0  0  0  0  0  0  0  0  0  0  0  0
    4.8637    0.4777    1.0949 H   0  0  0  0  0  0  0  0  0  0  0  0
    4.9504   -1.0349    0.2303 H   0  0  0  0  0  0  0  0  0  0  0  0
    7.0800    0.4209   -0.2850 O   0  0  0  0  0  0  0  0  0  0  0  0
    5.7285    0.1341   -1.8276 H   0  0  0  0  0  0  0  0  0  0  0  0
    5.6030    1.7012   -0.9715 H   0  0  0  0  0  0  0  0  0  0  0  0
    8.0984    0.8769   -1.0651 C   0  0  0  0  0  0  0  0  0  0  0  0
    7.9694    1.4286   -2.1493 O   0  0  0  0  0  0  0  0  0  0  0  0
    9.4153    0.5902   -0.4124 C   0  0  0  0  0  0  0  0  0  0  0  0
    9.5867   -0.4886   -0.3856 H   0  0  0  0  0  0  0  0  0  0  0  0
    9.4292    1.0079    0.5976 H   0  0  0  0  0  0  0  0  0  0  0  0
   10.2156    1.0619   -0.9898 H   0  0  0  0  0  0  0  0  0  0  0  0
    3.2504   -1.4938   -2.0767 C   0  0  0  0  0  0  0  0  0  0  0  0
    0.6823    2.2226    1.3294 C   0  0  0  0  0  0  0  0  0  0  0  0
   -1.7461   -1.6736   -1.5963 C   0  0  0  0  0  0  0  0  0  0  0  0
   -4.2810    1.6458    1.9702 C   0  0  0  0  0  0  0  0  0  0  0  0
    2.9694   -1.7057   -3.5325 C   0  0  0  0  0  0  0  0  0  0  0  0
   -1.5278   -2.7075   -0.9854 O   0  0  0  0  0  0  0  0  0  0  0  0
   -1.9366   -1.5987   -3.0801 C   0  0  0  0  0  0  0  0  0  0  0  0
    0.8931    1.7292    2.4261 O   0  0  0  0  0  0  0  0  0  0  0  0
    0.4284    3.6809    1.1007 C   0  0  0  0  0  0  0  0  0  0  0  0
   -4.1197    1.1137    3.0566 O   0  0  0  0  0  0  0  0  0  0  0  0
   -4.4355    3.1222    1.7714 C   0  0  0  0  0  0  0  0  0  0  0  0
   -0.5429    3.8171    0.6182 H   0  0  0  0  0  0  0  0  0  0  0  0
    1.2278    4.1051    0.4886 H   0  0  0  0  0  0  0  0  0  0  0  0
    0.4103    4.1999    2.0636 H   0  0  0  0  0  0  0  0  0  0  0  0
   -5.3898    3.3327    1.2818 H   0  0  0  0  0  0  0  0  0  0  0  0
   -3.6027    3.5046    1.1761 H   0  0  0  0  0  0  0  0  0  0  0  0
   -4.4289    3.6211    2.7448 H   0  0  0  0  0  0  0  0  0  0  0  0
   -1.1350   -1.0053   -3.5267 H   0  0  0  0  0  0  0  0  0  0  0  0
   -2.9131   -1.1636   -3.3076 H   0  0  0  0  0  0  0  0  0  0  0  0
   -1.9015   -2.6079   -3.5009 H   0  0  0  0  0  0  0  0  0  0  0  0
    3.6956   -1.1540   -4.1344 H   0  0  0  0  0  0  0  0  0  0  0  0
    1.9508   -1.3837   -3.7638 H   0  0  0  0  0  0  0  0  0  0  0  0
    3.0578   -2.7706   -3.7667 H   0  0  0  0  0  0  0  0  0  0  0  0
    2.2908   -1.3951    0.5740 H   0  0  0  0  0  0  0  0  0  0  0  0
    2.4489    0.0437    1.5679 H   0  0  0  0  0  0  0  0  0  0  0  0
    3.5561   -2.3850   -1.3003 O   0  0  0  0  0  0  0  0  0  0  0  0
   -0.1304   -1.7090    0.7816 H   0  0  0  0  0  0  0  0  0  0  0  0
   -0.2396   -0.4133    1.9567 H   0  0  0  0  0  0  0  0  0  0  0  0
    0.7083   -0.1565   -0.9351 H   0  0  0  0  0  0  0  0  0  0  0  0
   -6.8854   -0.8409   -0.5361 O   0  0  0  0  0  0  0  0  0  0  0  0
   -6.8072    0.4071    1.0538 H   0  0  0  0  0  0  0  0  0  0  0  0
   -7.9501   -1.2832    1.6688 C   0  0  0  0  0  0  0  0  0  0  0  0
   -9.2996   -0.7523    1.1500 C   0  0  0  0  0  0  0  0  0  0  0  0
   -6.8984   -2.0880   -1.0778 C   0  0  0  0  0  0  0  0  0  0  0  0
   -7.0661   -1.9952   -2.5633 C   0  0  0  0  0  0  0  0  0  0  0  0
   -6.7901   -3.1379   -0.4652 O   0  0  0  0  0  0  0  0  0  0  0  0
   -6.1863   -1.5226   -3.0065 H   0  0  0  0  0  0  0  0  0  0  0  0
   -7.9703   -1.4283   -2.8003 H   0  0  0  0  0  0  0  0  0  0  0  0
   -7.1741   -3.0014   -2.9788 H   0  0  0  0  0  0  0  0  0  0  0  0
   -7.8303   -1.0587    2.7340 H   0  0  0  0  0  0  0  0  0  0  0  0
   -7.9459   -2.3751    1.5823 H   0  0  0  0  0  0  0  0  0  0  0  0
   -9.3545   -1.0137    0.0871 H   0  0  0  0  0  0  0  0  0  0  0  0
   -9.3715    0.6969    1.1671 O   0  0  0  0  0  0  0  0  0  0  0  0
  -10.5195   -1.4003    1.8317 C   0  0  0  0  0  0  0  0  0  0  0  0
  -10.5640   -1.1181    2.8886 H   0  0  0  0  0  0  0  0  0  0  0  0
  -10.4033   -2.4884    1.8031 H   0  0  0  0  0  0  0  0  0  0  0  0
  -11.8352   -0.9771    1.1489 C   0  0  0  0  0  0  0  0  0  0  0  0
  -11.8607   -1.3279   -0.2583 O   0  0  0  0  0  0  0  0  0  0  0  0
  -11.8598    0.1187    1.1573 H   0  0  0  0  0  0  0  0  0  0  0  0
  -13.0924   -1.4570    1.8958 C   0  0  0  0  0  0  0  0  0  0  0  0
  -13.0214   -1.1324    2.9398 H   0  0  0  0  0  0  0  0  0  0  0  0
  -13.1378   -2.5509    1.9134 H   0  0  0  0  0  0  0  0  0  0  0  0
  -14.3881   -0.9168    1.2586 C   0  0  0  0  0  0  0  0  0  0  0  0
   -9.3222    1.3643    2.3511 C   0  0  0  0  0  0  0  0  0  0  0  0
   -9.2035    0.8593    3.4559 O   0  0  0  0  0  0  0  0  0  0  0  0
   -9.4298    2.8384    2.1087 C   0  0  0  0  0  0  0  0  0  0  0  0
  -10.3625    3.0612    1.5843 H   0  0  0  0  0  0  0  0  0  0  0  0
   -8.5688    3.1824    1.5303 H   0  0  0  0  0  0  0  0  0  0  0  0
   -9.4397    3.3632    3.0686 H   0  0  0  0  0  0  0  0  0  0  0  0
  -11.8401   -2.6368   -0.6299 C   0  0  0  0  0  0  0  0  0  0  0  0
  -11.8558   -2.7410   -2.1238 C   0  0  0  0  0  0  0  0  0  0  0  0
  -10.9849   -2.2283   -2.5402 H   0  0  0  0  0  0  0  0  0  0  0  0
  -12.7813   -2.3117   -2.5154 H   0  0  0  0  0  0  0  0  0  0  0  0
  -11.8086   -3.7947   -2.4136 H   0  0  0  0  0  0  0  0  0  0  0  0
  -11.8116   -3.5963    0.1240 O   0  0  0  0  0  0  0  0  0  0  0  0
  -14.4104   -1.2661    0.2197 H   0  0  0  0  0  0  0  0  0  0  0  0
  -14.3799    0.5279    1.1523 O   0  0  0  0  0  0  0  0  0  0  0  0
  -15.6522   -1.4688    1.9405 C   0  0  0  0  0  0  0  0  0  0  0  0
  -15.6100   -1.2905    3.0212 H   0  0  0  0  0  0  0  0  0  0  0  0
  -15.6586   -2.5584    1.8204 H   0  0  0  0  0  0  0  0  0  0  0  0
  -16.9605   -0.8608    1.4007 C   0  0  0  0  0  0  0  0  0  0  0  0
  -17.0438   -0.8604   -0.0422 O   0  0  0  0  0  0  0  0  0  0  0  0
  -16.9483    0.1998    1.6742 H   0  0  0  0  0  0  0  0  0  0  0  0
  -18.2025   -1.4803    2.0594 C   0  0  0  0  0  0  0  0  0  0  0  0
  -14.3982    1.2931    2.2759 C   0  0  0  0  0  0  0  0  0  0  0  0
  -17.0426   -2.0386   -0.7220 C   0  0  0  0  0  0  0  0  0  0  0  0
  -18.1385   -1.3606    3.1491 H   0  0  0  0  0  0  0  0  0  0  0  0
  -18.2182   -2.5648    1.8939 H   0  0  0  0  0  0  0  0  0  0  0  0
  -19.5379   -0.9081    1.5598 C   0  0  0  0  0  0  0  0  0  0  0  0
  -19.6314   -1.0966    0.4840 H   0  0  0  0  0  0  0  0  0  0  0  0
  -19.6818    0.5847    1.8464 C   0  0  0  0  0  0  0  0  0  0  0  0
  -20.5775   -1.6154    2.2720 O   0  0  0  0  0  0  0  0  0  0  0  0
  -18.9614    1.1783    1.2768 H   0  0  0  0  0  0  0  0  0  0  0  0
  -19.5434    0.7916    2.9132 H   0  0  0  0  0  0  0  0  0  0  0  0
  -20.6854    0.9382    1.5880 H   0  0  0  0  0  0  0  0  0  0  0  0
  -14.4543    0.8798    3.4232 O   0  0  0  0  0  0  0  0  0  0  0  0
  -14.3483    2.7426    1.9027 C   0  0  0  0  0  0  0  0  0  0  0  0
  -16.9494   -3.1503   -0.2258 O   0  0  0  0  0  0  0  0  0  0  0  0
  -17.1424   -1.7756   -2.1928 C   0  0  0  0  0  0  0  0  0  0  0  0
  -16.2385   -1.2680   -2.5391 H   0  0  0  0  0  0  0  0  0  0  0  0
  -18.0283   -1.1711   -2.4040 H   0  0  0  0  0  0  0  0  0  0  0  0
  -17.2398   -2.7261   -2.7254 H   0  0  0  0  0  0  0  0  0  0  0  0
  -15.2367    3.0067    1.3236 H   0  0  0  0  0  0  0  0  0  0  0  0
  -13.4397    2.9470    1.3305 H   0  0  0  0  0  0  0  0  0  0  0  0
  -14.3292    3.3505    2.8118 H   0  0  0  0  0  0  0  0  0  0  0  0
  -21.7843   -1.6982    1.6486 C   0  0  0  0  0  0  0  0  0  0  0  0
  -22.0544   -1.2320    0.5510 O   0  0  0  0  0  0  0  0  0  0  0  0
  -22.7470   -2.4670    2.5012 C   0  0  0  0  0  0  0  0  0  0  0  0
  -22.7702   -2.0457    3.5097 H   0  0  0  0  0  0  0  0  0  0  0  0
  -22.4543   -3.5191    2.5311 H   0  0  0  0  0  0  0  0  0  0  0  0
  -23.7512   -2.3871    2.0756 H   0  0  0  0  0  0  0  0  0  0  0  0
  1  2  1  0  0  0  0
  1 11  1  0  0  0  0
  1 12  1  0  0  0  0
  1 13  1  0  0  0  0
  2  3  1  0  0  0  0
  2 14  1  0  0  0  0
  2 15  1  0  0  0  0
  3  4  1  0  0  0  0
  3 16  1  0  0  0  0
  3 17  1  0  0  0  0
  4  5  1  0  0  0  0
  4 18  1  0  0  0  0
  4 19  1  0  0  0  0
  5  6  1  0  0  0  0
  6  7  1  0  0  0  0
  6 20  1  0  0  0  0
  7  8  1  0  0  0  0
  8  9  1  0  0  0  0
  8 21  1  0  0  0  0
  8 22  1  0  0  0  0
  9 10  1  0  0  0  0
  9 23  1  0  0  0  0
  9 24  1  0  0  0  0
 10 25  1  0  0  0  0
 10 26  1  0  0  0  0
 10 27  1  0  0  0  0
 28 25  1  0  0  0  0
 29 28  2  0  0  0  0
 30 28  1  0  0  0  0
 31 30  1  0  0  0  0
 32 30  1  0  0  0  0
 33 30  1  0  0  0  0
 34 21  1  0  0  0  0
 35 20  1  0  0  0  0
 36 18  1  0  0  0  0
 37 15  1  0  0  0  0
 38 34  1  0  0  0  0
 39 36  2  0  0  0  0
 40 36  1  0  0  0  0
 41 35  2  0  0  0  0
 42 35  1  0  0  0  0
 43 37  2  0  0  0  0
 44 37  1  0  0  0  0
 45 42  1  0  0  0  0
 46 42  1  0  0  0  0
 47 42  1  0  0  0  0
 48 44  1  0  0  0  0
 49 44  1  0  0  0  0
 50 44  1  0  0  0  0
 51 40  1  0  0  0  0
 52 40  1  0  0  0  0
 53 40  1  0  0  0  0
 54 38  1  0  0  0  0
 55 38  1  0  0  0  0
 56 38  1  0  0  0  0
 57  7  1  0  0  0  0
 58  7  1  0  0  0  0
 59 34  2  0  0  0  0
 60  5  1  0  0  0  0
 61  5  1  0  0  0  0
 62  6  1  0  0  0  0
 63 12  1  0  0  0  0
 64 12  1  0  0  0  0
 65 12  1  0  0  0  0
 66 65  1  0  0  0  0
 67 63  1  0  0  0  0
 68 67  1  0  0  0  0
 69 67  2  0  0  0  0
 70 68  1  0  0  0  0
 71 68  1  0  0  0  0
 72 68  1  0  0  0  0
 73 65  1  0  0  0  0
 74 65  1  0  0  0  0
 75 66  1  0  0  0  0
 76 66  1  0  0  0  0
 77 66  1  0  0  0  0
 78 77  1  0  0  0  0
 79 77  1  0  0  0  0
 80 77  1  0  0  0  0
 81 80  1  0  0  0  0
 82 80  1  0  0  0  0
 83 80  1  0  0  0  0
 84 83  1  0  0  0  0
 85 83  1  0  0  0  0
 86 83  1  0  0  0  0
 87 76  1  0  0  0  0
 88 87  2  0  0  0  0
 89 87  1  0  0  0  0
 90 89  1  0  0  0  0
 91 89  1  0  0  0  0
 92 89  1  0  0  0  0
 93 81  1  0  0  0  0
 94 93  1  0  0  0  0
 95 94  1  0  0  0  0
 96 94  1  0  0  0  0
 97 94  1  0  0  0  0
 98 93  2  0  0  0  0
 99 86  1  0  0  0  0
100 86  1  0  0  0  0
101 86  1  0  0  0  0
102101  1  0  0  0  0
103101  1  0  0  0  0
104101  1  0  0  0  0
105104  1  0  0  0  0
106104  1  0  0  0  0
107104  1  0  0  0  0
108100  1  0  0  0  0
109105  1  0  0  0  0
110107  1  0  0  0  0
111107  1  0  0  0  0
112107  1  0  0  0  0
113112  1  0  0  0  0
114112  1  0  0  0  0
115112  1  0  0  0  0
116114  1  0  0  0  0
117114  1  0  0  0  0
118114  1  0  0  0  0
119108  2  0  0  0  0
120108  1  0  0  0  0
121109  2  0  0  0  0
122109  1  0  0  0  0
123122  1  0  0  0  0
124122  1  0  0  0  0
125122  1  0  0  0  0
126120  1  0  0  0  0
127120  1  0  0  0  0
128120  1  0  0  0  0
129115  1  0  0  0  0
130129  2  0  0  0  0
131129  1  0  0  0  0
132131  1  0  0  0  0
133131  1  0  0  0  0
134131  1  0  0  0  0
M  END
