
 OpenBabel10101311163D

107106  0  0  1  0  0  0  0  0999 V2000
   -0.0806    0.0321   -0.2431 C   0  0  1  0  0  0  0  0  0  0  0  0
    0.8724   -1.0381   -0.8396 C   0  0  0  0  0  0  0  0  0  0  0  0
    0.2203    1.3480   -0.8453 C   0  0  0  0  0  0  0  0  0  0  0  0
   -1.5740   -0.3174   -0.4814 C   0  0  0  0  0  0  0  0  0  0  0  0
    0.0948    0.0918    0.8366 H   0  0  0  0  0  0  0  0  0  0  0  0
    2.3360   -0.8577   -0.3548 C   0  0  1  0  0  0  0  0  0  0  0  0
    0.8402   -0.9823   -1.9359 H   0  0  0  0  0  0  0  0  0  0  0  0
    0.5186   -2.0397   -0.5614 H   0  0  0  0  0  0  0  0  0  0  0  0
    0.4503    2.3708   -1.3377 N   0  0  0  0  0  0  0  0  0  0  0  0
   -1.7517   -1.3656   -0.2064 H   0  0  0  0  0  0  0  0  0  0  0  0
   -1.8019   -0.2260   -1.5517 H   0  0  0  0  0  0  0  0  0  0  0  0
   -2.5326    0.5950    0.3299 C   0  0  2  0  0  0  0  0  0  0  0  0
   -2.2448    1.6388    0.1636 H   0  0  0  0  0  0  0  0  0  0  0  0
   -2.4021    0.2903    1.7705 C   0  0  0  0  0  0  0  0  0  0  0  0
   -4.0123    0.4159   -0.1020 C   0  0  0  0  0  0  0  0  0  0  0  0
    2.4246   -1.2094    1.0783 C   0  0  0  0  0  0  0  0  0  0  0  0
    2.6177    0.1938   -0.4773 H   0  0  0  0  0  0  0  0  0  0  0  0
    3.3310   -1.7331   -1.1622 C   0  0  0  0  0  0  0  0  0  0  0  0
    3.1241   -1.6275   -2.2356 H   0  0  0  0  0  0  0  0  0  0  0  0
    3.1711   -2.7898   -0.9100 H   0  0  0  0  0  0  0  0  0  0  0  0
    4.8103   -1.3523   -0.8846 C   0  0  2  0  0  0  0  0  0  0  0  0
   -2.3070    0.0304    2.8951 N   0  0  0  0  0  0  0  0  0  0  0  0
    2.4864   -1.5086    2.1956 N   0  0  0  0  0  0  0  0  0  0  0  0
   -4.9372    1.5127    0.4911 C   0  0  1  0  0  0  0  0  0  0  0  0
   -4.6452    2.8068   -0.1608 C   0  0  0  0  0  0  0  0  0  0  0  0
   -4.7312    1.6034    1.5632 H   0  0  0  0  0  0  0  0  0  0  0  0
   -6.4381    1.1697    0.3030 C   0  0  0  0  0  0  0  0  0  0  0  0
    4.9557   -1.2819    0.1988 H   0  0  0  0  0  0  0  0  0  0  0  0
    5.1008   -0.0353   -1.4891 C   0  0  0  0  0  0  0  0  0  0  0  0
    5.7969   -2.4087   -1.4479 C   0  0  0  0  0  0  0  0  0  0  0  0
    5.7785   -2.3733   -2.5455 H   0  0  0  0  0  0  0  0  0  0  0  0
    5.4608   -3.4129   -1.1571 H   0  0  0  0  0  0  0  0  0  0  0  0
    7.2516   -2.1925   -0.9493 C   0  0  1  0  0  0  0  0  0  0  0  0
   -4.4240    3.8098   -0.6964 N   0  0  0  0  0  0  0  0  0  0  0  0
    5.3235    0.9873   -1.9855 N   0  0  0  0  0  0  0  0  0  0  0  0
   -6.6128    0.1233    0.5872 H   0  0  0  0  0  0  0  0  0  0  0  0
   -6.6992    1.2572   -0.7602 H   0  0  0  0  0  0  0  0  0  0  0  0
   -7.3667    2.0893    1.1420 C   0  0  2  0  0  0  0  0  0  0  0  0
   -7.0605    3.1299    0.9904 H   0  0  0  0  0  0  0  0  0  0  0  0
   -7.2269    1.7542    2.5741 C   0  0  0  0  0  0  0  0  0  0  0  0
   -8.8498    1.9419    0.7152 C   0  0  0  0  0  0  0  0  0  0  0  0
    7.3269   -2.4919    0.4957 C   0  0  0  0  0  0  0  0  0  0  0  0
    7.5247   -1.1438   -1.1083 H   0  0  0  0  0  0  0  0  0  0  0  0
    8.2579   -3.0887   -1.7170 C   0  0  0  0  0  0  0  0  0  0  0  0
    8.0803   -2.9898   -2.7965 H   0  0  0  0  0  0  0  0  0  0  0  0
    8.0725   -4.1404   -1.4610 H   0  0  0  0  0  0  0  0  0  0  0  0
    9.7395   -2.7397   -1.4095 C   0  0  2  0  0  0  0  0  0  0  0  0
   -7.1261    1.4679    3.6919 N   0  0  0  0  0  0  0  0  0  0  0  0
    7.3787   -2.7494    1.6238 N   0  0  0  0  0  0  0  0  0  0  0  0
   -9.1999    0.9319    0.9680 H   0  0  0  0  0  0  0  0  0  0  0  0
   -8.9210    2.0367   -0.3768 H   0  0  0  0  0  0  0  0  0  0  0  0
   -9.7872    2.9878    1.3781 C   0  0  1  0  0  0  0  0  0  0  0  0
   -9.4526    4.3391    0.8855 C   0  0  0  0  0  0  0  0  0  0  0  0
   -9.6398    2.9566    2.4630 H   0  0  0  0  0  0  0  0  0  0  0  0
  -11.2730    2.6738    1.0680 C   0  0  0  0  0  0  0  0  0  0  0  0
    9.8775   -2.7119   -0.3232 H   0  0  0  0  0  0  0  0  0  0  0  0
   10.0617   -1.4109   -1.9684 C   0  0  0  0  0  0  0  0  0  0  0  0
   10.7004   -3.8000   -2.0056 C   0  0  0  0  0  0  0  0  0  0  0  0
   10.6593   -3.7458   -3.1021 H   0  0  0  0  0  0  0  0  0  0  0  0
   10.3493   -4.8027   -1.7266 H   0  0  0  0  0  0  0  0  0  0  0  0
   12.1723   -3.6294   -1.5405 C   0  0  1  0  0  0  0  0  0  0  0  0
   -9.1953    5.3916    0.4758 N   0  0  0  0  0  0  0  0  0  0  0  0
   10.3085   -0.3782   -2.4314 N   0  0  0  0  0  0  0  0  0  0  0  0
   -4.3658   -0.5733    0.2179 H   0  0  0  0  0  0  0  0  0  0  0  0
   -4.0790    0.4380   -1.1980 H   0  0  0  0  0  0  0  0  0  0  0  0
  -11.4733    1.6196    1.3033 H   0  0  0  0  0  0  0  0  0  0  0  0
  -11.4466    2.7934   -0.0103 H   0  0  0  0  0  0  0  0  0  0  0  0
  -12.2774    3.5673    1.8451 C   0  0  2  0  0  0  0  0  0  0  0  0
  -12.0142    4.6186    1.6867 H   0  0  0  0  0  0  0  0  0  0  0  0
  -12.2032    3.2629    3.2875 C   0  0  0  0  0  0  0  0  0  0  0  0
  -13.7196    3.3303    1.3316 C   0  0  0  0  0  0  0  0  0  0  0  0
   12.2767   -3.9391   -0.1007 C   0  0  0  0  0  0  0  0  0  0  0  0
   12.4781   -2.5909   -1.7058 H   0  0  0  0  0  0  0  0  0  0  0  0
   13.1110   -4.5606   -2.3477 C   0  0  0  0  0  0  0  0  0  0  0  0
   12.9225   -4.4119   -3.4200 H   0  0  0  0  0  0  0  0  0  0  0  0
   12.8556   -5.6060   -2.1268 H   0  0  0  0  0  0  0  0  0  0  0  0
   14.6216   -4.3408   -2.0666 C   0  0  2  0  0  0  0  0  0  0  0  0
   12.3469   -4.2038    1.0248 N   0  0  0  0  0  0  0  0  0  0  0  0
  -12.1484    2.9989    4.4141 N   0  0  0  0  0  0  0  0  0  0  0  0
  -14.0156    2.2975    1.5618 H   0  0  0  0  0  0  0  0  0  0  0  0
  -13.7263    3.4206    0.2366 H   0  0  0  0  0  0  0  0  0  0  0  0
  -14.7763    4.3007    1.9227 C   0  0  1  0  0  0  0  0  0  0  0  0
  -14.5047    5.6784    1.4683 C   0  0  0  0  0  0  0  0  0  0  0  0
  -14.7239    4.2652    3.0164 H   0  0  0  0  0  0  0  0  0  0  0  0
  -16.1931    3.8694    1.4760 C   0  0  0  0  0  0  0  0  0  0  0  0
  -14.2976    6.7531    1.0875 N   0  0  0  0  0  0  0  0  0  0  0  0
   14.8005   -4.4288   -0.9894 H   0  0  0  0  0  0  0  0  0  0  0  0
   15.0273   -2.9951   -2.5176 C   0  0  0  0  0  0  0  0  0  0  0  0
   15.4590   -5.4149   -2.8033 C   0  0  0  0  0  0  0  0  0  0  0  0
   15.3168   -5.2975   -3.8867 H   0  0  0  0  0  0  0  0  0  0  0  0
   15.0687   -6.4086   -2.5435 H   0  0  0  0  0  0  0  0  0  0  0  0
   16.9731   -5.3709   -2.4915 C   0  0  1  0  0  0  0  0  0  0  0  0
   15.3419   -1.9457   -2.8951 N   0  0  0  0  0  0  0  0  0  0  0  0
  -17.3365    4.6911    2.0908 C   0  0  0  0  0  0  0  0  0  0  0  0
  -17.2132    5.7573    1.8736 H   0  0  0  0  0  0  0  0  0  0  0  0
  -17.4432    4.4791    3.5397 C   0  0  0  0  0  0  0  0  0  0  0  0
  -18.2777    4.3845    1.6194 H   0  0  0  0  0  0  0  0  0  0  0  0
  -17.5019    4.2940    4.6827 N   0  0  0  0  0  0  0  0  0  0  0  0
   17.2271   -5.7157   -1.0807 C   0  0  0  0  0  0  0  0  0  0  0  0
   17.7277   -6.3439   -3.3990 C   0  0  0  0  0  0  0  0  0  0  0  0
   17.5814   -6.0859   -4.4532 H   0  0  0  0  0  0  0  0  0  0  0  0
   17.3898   -7.3759   -3.2508 H   0  0  0  0  0  0  0  0  0  0  0  0
   18.8040   -6.3154   -3.1937 H   0  0  0  0  0  0  0  0  0  0  0  0
  -16.3421    2.8109    1.7279 H   0  0  0  0  0  0  0  0  0  0  0  0
  -16.2686    3.9448    0.3828 H   0  0  0  0  0  0  0  0  0  0  0  0
   17.3634   -4.3655   -2.6874 H   0  0  0  0  0  0  0  0  0  0  0  0
   17.3946   -5.9871    0.0340 N   0  0  0  0  0  0  0  0  0  0  0  0
  1  2  1  0  0  0  0
  1  3  1  0  0  0  0
  1  4  1  0  0  0  0
  1  5  1  1  0  0  0
  6  2  1  0  0  0  0
  6 17  1  6  0  0  0
  7  2  1  0  0  0  0
  8  2  1  0  0  0  0
  9  3  3  0  0  0  0
 10  4  1  0  0  0  0
 11  4  1  0  0  0  0
 12  4  1  0  0  0  0
 12 13  1  6  0  0  0
 14 12  1  0  0  0  0
 15 12  1  0  0  0  0
 16  6  1  0  0  0  0
 18  6  1  0  0  0  0
 19 18  1  0  0  0  0
 20 18  1  0  0  0  0
 21 18  1  0  0  0  0
 21 28  1  1  0  0  0
 22 14  3  0  0  0  0
 23 16  3  0  0  0  0
 24 15  1  0  0  0  0
 24 26  1  1  0  0  0
 25 24  1  0  0  0  0
 27 24  1  0  0  0  0
 29 21  1  0  0  0  0
 30 21  1  0  0  0  0
 31 30  1  0  0  0  0
 32 30  1  0  0  0  0
 33 30  1  0  0  0  0
 33 43  1  6  0  0  0
 34 25  3  0  0  0  0
 35 29  3  0  0  0  0
 36 27  1  0  0  0  0
 37 27  1  0  0  0  0
 38 27  1  0  0  0  0
 38 39  1  6  0  0  0
 40 38  1  0  0  0  0
 41 38  1  0  0  0  0
 42 33  1  0  0  0  0
 44 33  1  0  0  0  0
 45 44  1  0  0  0  0
 46 44  1  0  0  0  0
 47 44  1  0  0  0  0
 47 56  1  1  0  0  0
 48 40  3  0  0  0  0
 49 42  3  0  0  0  0
 50 41  1  0  0  0  0
 51 41  1  0  0  0  0
 52 41  1  0  0  0  0
 52 54  1  1  0  0  0
 53 52  1  0  0  0  0
 55 52  1  0  0  0  0
 57 47  1  0  0  0  0
 58 47  1  0  0  0  0
 59 58  1  0  0  0  0
 60 58  1  0  0  0  0
 61 58  1  0  0  0  0
 61 73  1  6  0  0  0
 62 53  3  0  0  0  0
 63 57  3  0  0  0  0
 64 15  1  0  0  0  0
 65 15  1  0  0  0  0
 66 55  1  0  0  0  0
 67 55  1  0  0  0  0
 68 55  1  0  0  0  0
 68 69  1  6  0  0  0
 70 68  1  0  0  0  0
 71 68  1  0  0  0  0
 72 61  1  0  0  0  0
 74 61  1  0  0  0  0
 75 74  1  0  0  0  0
 76 74  1  0  0  0  0
 77 74  1  0  0  0  0
 77 87  1  1  0  0  0
 78 72  3  0  0  0  0
 79 70  3  0  0  0  0
 80 71  1  0  0  0  0
 81 71  1  0  0  0  0
 82 71  1  0  0  0  0
 82 84  1  1  0  0  0
 83 82  1  0  0  0  0
 85 82  1  0  0  0  0
 86 83  3  0  0  0  0
 88 77  1  0  0  0  0
 89 77  1  0  0  0  0
 90 89  1  0  0  0  0
 91 89  1  0  0  0  0
 92 89  1  0  0  0  0
 92106  1  6  0  0  0
 93 88  3  0  0  0  0
 94 85  1  0  0  0  0
 95 94  1  0  0  0  0
 96 94  1  0  0  0  0
 97 94  1  0  0  0  0
 98 96  3  0  0  0  0
 99 92  1  0  0  0  0
100 92  1  0  0  0  0
101100  1  0  0  0  0
102100  1  0  0  0  0
103100  1  0  0  0  0
104 85  1  0  0  0  0
105 85  1  0  0  0  0
107 99  3  0  0  0  0
M  END
